/*--------------------------------*- C++ -*----------------------------------*\
  =========                 |
  \\      /  F ield         | OpenFOAM: The Open Source CFD Toolbox
   \\    /   O peration     | Website:  https://openfoam.org
    \\  /    A nd           | Version:  8
     \\/     M anipulation  |
\*---------------------------------------------------------------------------*/
FoamFile
{
    version     2.0;
    format      ascii;
    class       volScalarField;
    object      nut;
}
// * * * * * * * * * * * * * * * * * * * * * * * * * * * * * * * * * * * * * //

dimensions      [0 2 -1 0 0 0 0];

def             uniform 1.4e-2;

internalField   $def;

boundaryField
{
    meanFlow
    {
        type            freestream;
        freestreamValue $def;
    }

    right
    {
        type            freestream;
        freestreamValue $def;
    }

    down
    {
        type            symmetryPlane;
    }

    up
    {
        type            symmetryPlane;
    }

    surface
    {
        type            nutUSpaldingWallFunction;
        value           uniform 0;
    }

    coandaInlet
    {
        type            freestream;
        freestreamValue $def;
    }
}

// ************************************************************************* //
