/*--------------------------------*- C++ -*----------------------------------*\
  =========                 |
  \\      /  F ield         | OpenFOAM: The Open Source CFD Toolbox
   \\    /   O peration     | Website:  https://openfoam.org
    \\  /    A nd           | Version:  10
     \\/     M anipulation  |
\*---------------------------------------------------------------------------*/
FoamFile
{
    format      ascii;
    class       polyBoundaryMesh;
    location    "constant/polyMesh";
    object      boundary;
}
// * * * * * * * * * * * * * * * * * * * * * * * * * * * * * * * * * * * * * //

10
(
    down
    {
        type            patch;
        nFaces          0;
        startFace       17567;
    }
    right
    {
        type            patch;
        nFaces          0;
        startFace       17567;
    }
    up
    {
        type            patch;
        nFaces          0;
        startFace       17567;
    }
    meanFlow
    {
        type            patch;
        nFaces          10;
        startFace       17567;
    }
    coandaUpper
    {
        type            patch;
        nFaces          0;
        startFace       17577;
    }
    coandaLower
    {
        type            patch;
        nFaces          0;
        startFace       17577;
    }
    surface
    {
        type            wall;
        inGroups        List<word> 1(wall);
        nFaces          128;
        startFace       17577;
    }
    defaultFaces
    {
        type            empty;
        inGroups        List<word> 1(empty);
        nFaces          17830;
        startFace       17705;
    }
    procBoundary4to3
    {
        type            processor;
        inGroups        List<word> 1(processor);
        nFaces          253;
        startFace       35535;
        matchTolerance  0.0001;
        myProcNo        4;
        neighbProcNo    3;
    }
    procBoundary4to5
    {
        type            processor;
        inGroups        List<word> 1(processor);
        nFaces          135;
        startFace       35788;
        matchTolerance  0.0001;
        myProcNo        4;
        neighbProcNo    5;
    }
)

// ************************************************************************* //
