/*---------------------------------*- C++ -*-----------------------------------*/
//    //////////////      ///////////////
//    //////////////      //////////////
//         ////           ////             /////       ////  //  /// //// ////
//         ////     ////  ///////////   ///    ///  ///    ///   ////  ///  ///
//  ////   ////           ///////////   ///    ///  ///    ///   ///   ///  ///
//   //// ////            ////          ///    ///  ///    ///   ///   ///  ///
//     /////              ////            /////       ///// ///  ///   ///  ///
/*---------------------------------*- C++ -*-----------------------------------*/

FoamFile
{
		version			2.0;
		format			ascii;
		class				dictionary;
		object			blockMeshDict;
}

// ***************************************************************************** //

scale				1;

vertices
(
		(-8.0 0.0 -0.078)	//	0
		(-8.0 0.0 0.078)	//	1
		(-0.021786641041908156 -8.0 -0.078)	//	2
		(-0.021786641041908156 -8.0 0.078)	//	3
		(-0.5 0.0 -0.078)	//	4
		(-0.5 0.0 0.078)	//	5
		(-0.021786641041908156 0.004084636013321932 -0.078)	//	6
		(-0.021786641041908156 0.004084636013321932 0.078)	//	7
		(-0.021786641041908156 8.0 -0.078)	//	8
		(-0.021786641041908156 8.0 0.078)	//	9
		(-0.003045 8.0 -0.078)	//	10
		(-0.003045 8.0 0.078)	//	11
		(7.996952 0.0 -0.078)	//	12
		(7.996952 0.0 0.078)	//	13
		(-0.003045 -8.0 -0.078)	//	14
		(-0.003045 -8.0 0.078)	//	15
		(0.0 0.0 -0.078)	//	16
		(0.0 0.0 0.078)	//	17
		(-0.021786641041908156 -0.004084636013321932 -0.078)	//	18
		(-0.021786641041908156 -0.004084636013321932 0.078)	//	19
		(0.0 0.0 -0.078)	//	20
		(0.0 0.0 0.078)	//	21
		(-0.003048 0.003048 -0.078)	//	22
		(-0.003048 0.003048 0.078)	//	23
		(-0.003047 0.0032765999999999997 -0.078)	//	24
		(-0.003047 0.0032765999999999997 0.078)	//	25
		(-0.003046 0.0035813999999999998 -0.078)	//	26
		(-0.003046 0.0035813999999999998 0.078)	//	27
		(-0.021786641041908156 0.004084636013321932 -0.078)	//	28
		(-0.021786641041908156 0.004084636013321932 0.078)	//	29
		(-0.003048 -0.003048 -0.078)	//	30
		(-0.003048 -0.003048 0.078)	//	31
		(-0.003047 -0.0032765999999999997 -0.078)	//	32
		(-0.003047 -0.0032765999999999997 0.078)	//	33
		(-0.003046 -0.0035813999999999998 -0.078)	//	34
		(-0.003046 -0.0035813999999999998 0.078)	//	35
		(-0.021786641041908156 -0.004084636013321932 -0.078)	//	36
		(-0.021786641041908156 -0.004084636013321932 0.078)	//	37
);

blocks
(
		hex ( 4 28  8  0  5 29  9  1) (70 80 1) edgeGrading (((.5 .5 10) (.5 .5 0.1)) 0.1  0.1 ((.5 .5 10) (.5 .5 0.1)) 1200 1200 1200 1200 1 1 1 1) // 0
		hex (28 26 10  8 29 27 11  9) (12 80 1) simpleGrading (0.5  1200  1) // 1
		hex (26 34 14 10 27 35 15 11) (100 80 1) simpleGrading ( 1  1200  1) // 2
		hex (34 36  2 14 35 37  3 15) (12 80 1) simpleGrading (2  1200  1) // 3
		hex (36  4  0  2 37  5  1  3) (70 80 1) edgeGrading (((.5 .5 10) (.5 .5 0.1)) 10  10 ((.5 .5 10) (.5 .5 0.1)) 1200 1200 1200 1200 1 1 1 1) // 4
		hex (24 32 34 26 25 33 35 27) (100 1 1) simpleGrading ( 1  2  1) // 5
		hex (22 30 32 24 23 31 33 25) (100 2 1) simpleGrading ( 1  2  1) // 6
);

edges
(
		arc  8  0  90.0  (0 0 1)
		arc  9  1  90.0  (0 0 1)
		arc  0  2  90.0  (0 0 1)
		arc  1  3  90.0  (0 0 1)
		arc 14 10 180.0  (0 0 1)
		arc 15 11 180.0  (0 0 1)
		arc 30 22 180.0  (0 0 1)
		arc 31 23 180.0  (0 0 1)
		arc 32 24 180.0  (0 0 1)
		arc 33 25 180.0  (0 0 1)
		arc 34 26 180.0  (0 0 1)
		arc 35 27 180.0  (0 0 1)
		spline 4 28 (
							(-0.49980528  0.0019243  -0.078     )
							(-0.49923625  0.00380878 -0.078     )
							(-0.49831502  0.00565049 -0.078     )
							(-0.49706285  0.00744679 -0.078     )
							(-0.4955002   0.00919536 -0.078     )
							(-0.49364673  0.01089417 -0.078     )
							(-0.49152132  0.01254146 -0.078     )
							(-0.48914208  0.01413575 -0.078     )
							(-0.48652635  0.0156758  -0.078     )
							(-0.48369074  0.01716061 -0.078     )
							(-0.48065113  0.0185894  -0.078     )
							(-0.47742266  0.0199616  -0.078     )
							(-0.47401979  0.02127686 -0.078     )
							(-0.47045628  0.02253498 -0.078     )
							(-0.4667452   0.02373596 -0.078     )
							(-0.46289896  0.02487995 -0.078     )
							(-0.45892934  0.02596725 -0.078     )
							(-0.45484745  0.02699831 -0.078     )
							(-0.45066379  0.0279737  -0.078     )
							(-0.44638826  0.02889409 -0.078     )
							(-0.44203013  0.02976029 -0.078     )
							(-0.43759813  0.03057319 -0.078     )
							(-0.43310039  0.03133376 -0.078     )
							(-0.42854449  0.03204305 -0.078     )
							(-0.42393747  0.0327022  -0.078     )
							(-0.41928584  0.03331238 -0.078     )
							(-0.4145956   0.03387482 -0.078     )
							(-0.40987224  0.0343908  -0.078     )
							(-0.40512077  0.03486163 -0.078     )
							(-0.40034573  0.03528864 -0.078     )
							(-0.3955512  0.0356732 -0.078    )
							(-0.39074081  0.03601667 -0.078     )
							(-0.38591777  0.03632042 -0.078     )
							(-0.38108486  0.03658583 -0.078     )
							(-0.37624448  0.03681425 -0.078     )
							(-0.37139862  0.03700705 -0.078     )
							(-0.36654891  0.03716554 -0.078     )
							(-0.36169662  0.03729105 -0.078     )
							(-0.35684268  0.03738484 -0.078     )
							(-0.35198768  0.03744817 -0.078     )
							(-0.34713191  0.03748223 -0.078     )
							(-0.34227534  0.03748819 -0.078     )
							(-0.33741768  0.03746716 -0.078     )
							(-0.33255834  0.03742021 -0.078     )
							(-0.32769651  0.03734835 -0.078     )
							(-0.32283111  0.03725253 -0.078     )
							(-0.31796084  0.03713365 -0.078     )
							(-0.31308419  0.03699253 -0.078     )
							(-0.30819947  0.03682996 -0.078     )
							(-0.30330479  0.03664662 -0.078     )
							(-0.29839809  0.03644317 -0.078     )
							(-0.29347717  0.03622015 -0.078     )
							(-0.2885397   0.03597807 -0.078     )
							(-0.28358321  0.03571736 -0.078     )
							(-0.27860515  0.03543838 -0.078     )
							(-0.27360285  0.0351414  -0.078     )
							(-0.2685736   0.03482664 -0.078     )
							(-0.26351459  0.03449426 -0.078     )
							(-0.258423    0.03414431 -0.078     )
							(-0.25329597  0.03377682 -0.078     )
							(-0.24813063  0.03339173 -0.078     )
							(-0.24292409  0.03298891 -0.078     )
							(-0.23767352  0.03256817 -0.078     )
							(-0.23237608  0.03212926 -0.078     )
							(-0.22702902  0.0316719  -0.078     )
							(-0.22162962  0.0311957  -0.078     )
							(-0.21617528  0.03070027 -0.078     )
							(-0.21066345  0.03018514 -0.078     )
							(-0.20509172  0.0296498  -0.078     )
							(-0.19945783  0.02909371 -0.078     )
							(-0.19375962  0.0285163  -0.078     )
							(-0.18799512  0.02791693 -0.078     )
							(-0.18216252  0.02729499 -0.078     )
							(-0.17626023  0.02664979 -0.078     )
							(-0.17028685  0.02598067 -0.078     )
							(-0.1642412   0.02528694 -0.078     )
							(-0.15812235  0.0245679  -0.078     )
							(-0.15192963  0.02382287 -0.078     )
							(-0.14566265  0.02305116 -0.078     )
							(-0.13932131  0.02225212 -0.078     )
							(-0.13290579  0.02142509 -0.078     )
							(-0.12641664  0.02056948 -0.078     )
							(-0.11985471  0.01968471 -0.078     )
							(-0.11322124  0.01877025 -0.078     )
							(-0.10651781  0.01782564 -0.078     )
							(-0.09974643  0.01685048 -0.078     )
							(-0.09290948  0.01584443 -0.078     )
							(-0.0860098   0.01480725 -0.078     )
							(-0.07905063  0.01373878 -0.078     )
							(-0.07203571  0.01263896 -0.078     )
							(-0.06496923  0.01150787 -0.078     )
							(-0.05785587  0.01034568 -0.078     )
							(-0.05070084  0.0091527  -0.078     )
							(-0.04350985  0.00792941 -0.078     )
							(-0.03628917  0.00667641 -0.078     )
							(-0.02904563  0.0053945  -0.078     )

						)
		spline 4 36 (
							(-0.49980528 -0.0019243  -0.078     )
							(-0.49923625 -0.00380878 -0.078     )
							(-0.49831502 -0.00565049 -0.078     )
							(-0.49706285 -0.00744679 -0.078     )
							(-0.4955002  -0.00919536 -0.078     )
							(-0.49364673 -0.01089417 -0.078     )
							(-0.49152132 -0.01254146 -0.078     )
							(-0.48914208 -0.01413575 -0.078     )
							(-0.48652635 -0.0156758  -0.078     )
							(-0.48369074 -0.01716061 -0.078     )
							(-0.48065113 -0.0185894  -0.078     )
							(-0.47742266 -0.0199616  -0.078     )
							(-0.47401979 -0.02127686 -0.078     )
							(-0.47045628 -0.02253498 -0.078     )
							(-0.4667452  -0.02373596 -0.078     )
							(-0.46289896 -0.02487995 -0.078     )
							(-0.45892934 -0.02596725 -0.078     )
							(-0.45484745 -0.02699831 -0.078     )
							(-0.45066379 -0.0279737  -0.078     )
							(-0.44638826 -0.02889409 -0.078     )
							(-0.44203013 -0.02976029 -0.078     )
							(-0.43759813 -0.03057319 -0.078     )
							(-0.43310039 -0.03133376 -0.078     )
							(-0.42854449 -0.03204305 -0.078     )
							(-0.42393747 -0.0327022  -0.078     )
							(-0.41928584 -0.03331238 -0.078     )
							(-0.4145956  -0.03387482 -0.078     )
							(-0.40987224 -0.0343908  -0.078     )
							(-0.40512077 -0.03486163 -0.078     )
							(-0.40034573 -0.03528864 -0.078     )
							(-0.3955512 -0.0356732 -0.078    )
							(-0.39074081 -0.03601667 -0.078     )
							(-0.38591777 -0.03632042 -0.078     )
							(-0.38108486 -0.03658583 -0.078     )
							(-0.37624448 -0.03681425 -0.078     )
							(-0.37139862 -0.03700705 -0.078     )
							(-0.36654891 -0.03716554 -0.078     )
							(-0.36169662 -0.03729105 -0.078     )
							(-0.35684268 -0.03738484 -0.078     )
							(-0.35198768 -0.03744817 -0.078     )
							(-0.34713191 -0.03748223 -0.078     )
							(-0.34227534 -0.03748819 -0.078     )
							(-0.33741768 -0.03746716 -0.078     )
							(-0.33255834 -0.03742021 -0.078     )
							(-0.32769651 -0.03734835 -0.078     )
							(-0.32283111 -0.03725253 -0.078     )
							(-0.31796084 -0.03713365 -0.078     )
							(-0.31308419 -0.03699253 -0.078     )
							(-0.30819947 -0.03682996 -0.078     )
							(-0.30330479 -0.03664662 -0.078     )
							(-0.29839809 -0.03644317 -0.078     )
							(-0.29347717 -0.03622015 -0.078     )
							(-0.2885397  -0.03597807 -0.078     )
							(-0.28358321 -0.03571736 -0.078     )
							(-0.27860515 -0.03543838 -0.078     )
							(-0.27360285 -0.0351414  -0.078     )
							(-0.2685736  -0.03482664 -0.078     )
							(-0.26351459 -0.03449426 -0.078     )
							(-0.258423   -0.03414431 -0.078     )
							(-0.25329597 -0.03377682 -0.078     )
							(-0.24813063 -0.03339173 -0.078     )
							(-0.24292409 -0.03298891 -0.078     )
							(-0.23767352 -0.03256817 -0.078     )
							(-0.23237608 -0.03212926 -0.078     )
							(-0.22702902 -0.0316719  -0.078     )
							(-0.22162962 -0.0311957  -0.078     )
							(-0.21617528 -0.03070027 -0.078     )
							(-0.21066345 -0.03018514 -0.078     )
							(-0.20509172 -0.0296498  -0.078     )
							(-0.19945783 -0.02909371 -0.078     )
							(-0.19375962 -0.0285163  -0.078     )
							(-0.18799512 -0.02791693 -0.078     )
							(-0.18216252 -0.02729499 -0.078     )
							(-0.17626023 -0.02664979 -0.078     )
							(-0.17028685 -0.02598067 -0.078     )
							(-0.1642412  -0.02528694 -0.078     )
							(-0.15812235 -0.0245679  -0.078     )
							(-0.15192963 -0.02382287 -0.078     )
							(-0.14566265 -0.02305116 -0.078     )
							(-0.13932131 -0.02225212 -0.078     )
							(-0.13290579 -0.02142509 -0.078     )
							(-0.12641664 -0.02056948 -0.078     )
							(-0.11985471 -0.01968471 -0.078     )
							(-0.11322124 -0.01877025 -0.078     )
							(-0.10651781 -0.01782564 -0.078     )
							(-0.09974643 -0.01685048 -0.078     )
							(-0.09290948 -0.01584443 -0.078     )
							(-0.0860098  -0.01480725 -0.078     )
							(-0.07905063 -0.01373878 -0.078     )
							(-0.07203571 -0.01263896 -0.078     )
							(-0.06496923 -0.01150787 -0.078     )
							(-0.05785587 -0.01034568 -0.078     )
							(-0.05070084 -0.0091527  -0.078     )
							(-0.04350985 -0.00792941 -0.078     )
							(-0.03628917 -0.00667641 -0.078     )
							(-0.02904563 -0.0053945  -0.078     )

						)
		spline 5 29 (
							(-0.49980528  0.0019243   0.078     )
							(-0.49923625  0.00380878  0.078     )
							(-0.49831502  0.00565049  0.078     )
							(-0.49706285  0.00744679  0.078     )
							(-0.4955002   0.00919536  0.078     )
							(-0.49364673  0.01089417  0.078     )
							(-0.49152132  0.01254146  0.078     )
							(-0.48914208  0.01413575  0.078     )
							(-0.48652635  0.0156758   0.078     )
							(-0.48369074  0.01716061  0.078     )
							(-0.48065113  0.0185894   0.078     )
							(-0.47742266  0.0199616   0.078     )
							(-0.47401979  0.02127686  0.078     )
							(-0.47045628  0.02253498  0.078     )
							(-0.4667452   0.02373596  0.078     )
							(-0.46289896  0.02487995  0.078     )
							(-0.45892934  0.02596725  0.078     )
							(-0.45484745  0.02699831  0.078     )
							(-0.45066379  0.0279737   0.078     )
							(-0.44638826  0.02889409  0.078     )
							(-0.44203013  0.02976029  0.078     )
							(-0.43759813  0.03057319  0.078     )
							(-0.43310039  0.03133376  0.078     )
							(-0.42854449  0.03204305  0.078     )
							(-0.42393747  0.0327022   0.078     )
							(-0.41928584  0.03331238  0.078     )
							(-0.4145956   0.03387482  0.078     )
							(-0.40987224  0.0343908   0.078     )
							(-0.40512077  0.03486163  0.078     )
							(-0.40034573  0.03528864  0.078     )
							(-0.3955512  0.0356732  0.078    )
							(-0.39074081  0.03601667  0.078     )
							(-0.38591777  0.03632042  0.078     )
							(-0.38108486  0.03658583  0.078     )
							(-0.37624448  0.03681425  0.078     )
							(-0.37139862  0.03700705  0.078     )
							(-0.36654891  0.03716554  0.078     )
							(-0.36169662  0.03729105  0.078     )
							(-0.35684268  0.03738484  0.078     )
							(-0.35198768  0.03744817  0.078     )
							(-0.34713191  0.03748223  0.078     )
							(-0.34227534  0.03748819  0.078     )
							(-0.33741768  0.03746716  0.078     )
							(-0.33255834  0.03742021  0.078     )
							(-0.32769651  0.03734835  0.078     )
							(-0.32283111  0.03725253  0.078     )
							(-0.31796084  0.03713365  0.078     )
							(-0.31308419  0.03699253  0.078     )
							(-0.30819947  0.03682996  0.078     )
							(-0.30330479  0.03664662  0.078     )
							(-0.29839809  0.03644317  0.078     )
							(-0.29347717  0.03622015  0.078     )
							(-0.2885397   0.03597807  0.078     )
							(-0.28358321  0.03571736  0.078     )
							(-0.27860515  0.03543838  0.078     )
							(-0.27360285  0.0351414   0.078     )
							(-0.2685736   0.03482664  0.078     )
							(-0.26351459  0.03449426  0.078     )
							(-0.258423    0.03414431  0.078     )
							(-0.25329597  0.03377682  0.078     )
							(-0.24813063  0.03339173  0.078     )
							(-0.24292409  0.03298891  0.078     )
							(-0.23767352  0.03256817  0.078     )
							(-0.23237608  0.03212926  0.078     )
							(-0.22702902  0.0316719   0.078     )
							(-0.22162962  0.0311957   0.078     )
							(-0.21617528  0.03070027  0.078     )
							(-0.21066345  0.03018514  0.078     )
							(-0.20509172  0.0296498   0.078     )
							(-0.19945783  0.02909371  0.078     )
							(-0.19375962  0.0285163   0.078     )
							(-0.18799512  0.02791693  0.078     )
							(-0.18216252  0.02729499  0.078     )
							(-0.17626023  0.02664979  0.078     )
							(-0.17028685  0.02598067  0.078     )
							(-0.1642412   0.02528694  0.078     )
							(-0.15812235  0.0245679   0.078     )
							(-0.15192963  0.02382287  0.078     )
							(-0.14566265  0.02305116  0.078     )
							(-0.13932131  0.02225212  0.078     )
							(-0.13290579  0.02142509  0.078     )
							(-0.12641664  0.02056948  0.078     )
							(-0.11985471  0.01968471  0.078     )
							(-0.11322124  0.01877025  0.078     )
							(-0.10651781  0.01782564  0.078     )
							(-0.09974643  0.01685048  0.078     )
							(-0.09290948  0.01584443  0.078     )
							(-0.0860098   0.01480725  0.078     )
							(-0.07905063  0.01373878  0.078     )
							(-0.07203571  0.01263896  0.078     )
							(-0.06496923  0.01150787  0.078     )
							(-0.05785587  0.01034568  0.078     )
							(-0.05070084  0.0091527   0.078     )
							(-0.04350985  0.00792941  0.078     )
							(-0.03628917  0.00667641  0.078     )
							(-0.02904563  0.0053945   0.078     )

						)
		spline 5 37 (
							(-0.49980528 -0.0019243   0.078     )
							(-0.49923625 -0.00380878  0.078     )
							(-0.49831502 -0.00565049  0.078     )
							(-0.49706285 -0.00744679  0.078     )
							(-0.4955002  -0.00919536  0.078     )
							(-0.49364673 -0.01089417  0.078     )
							(-0.49152132 -0.01254146  0.078     )
							(-0.48914208 -0.01413575  0.078     )
							(-0.48652635 -0.0156758   0.078     )
							(-0.48369074 -0.01716061  0.078     )
							(-0.48065113 -0.0185894   0.078     )
							(-0.47742266 -0.0199616   0.078     )
							(-0.47401979 -0.02127686  0.078     )
							(-0.47045628 -0.02253498  0.078     )
							(-0.4667452  -0.02373596  0.078     )
							(-0.46289896 -0.02487995  0.078     )
							(-0.45892934 -0.02596725  0.078     )
							(-0.45484745 -0.02699831  0.078     )
							(-0.45066379 -0.0279737   0.078     )
							(-0.44638826 -0.02889409  0.078     )
							(-0.44203013 -0.02976029  0.078     )
							(-0.43759813 -0.03057319  0.078     )
							(-0.43310039 -0.03133376  0.078     )
							(-0.42854449 -0.03204305  0.078     )
							(-0.42393747 -0.0327022   0.078     )
							(-0.41928584 -0.03331238  0.078     )
							(-0.4145956  -0.03387482  0.078     )
							(-0.40987224 -0.0343908   0.078     )
							(-0.40512077 -0.03486163  0.078     )
							(-0.40034573 -0.03528864  0.078     )
							(-0.3955512 -0.0356732  0.078    )
							(-0.39074081 -0.03601667  0.078     )
							(-0.38591777 -0.03632042  0.078     )
							(-0.38108486 -0.03658583  0.078     )
							(-0.37624448 -0.03681425  0.078     )
							(-0.37139862 -0.03700705  0.078     )
							(-0.36654891 -0.03716554  0.078     )
							(-0.36169662 -0.03729105  0.078     )
							(-0.35684268 -0.03738484  0.078     )
							(-0.35198768 -0.03744817  0.078     )
							(-0.34713191 -0.03748223  0.078     )
							(-0.34227534 -0.03748819  0.078     )
							(-0.33741768 -0.03746716  0.078     )
							(-0.33255834 -0.03742021  0.078     )
							(-0.32769651 -0.03734835  0.078     )
							(-0.32283111 -0.03725253  0.078     )
							(-0.31796084 -0.03713365  0.078     )
							(-0.31308419 -0.03699253  0.078     )
							(-0.30819947 -0.03682996  0.078     )
							(-0.30330479 -0.03664662  0.078     )
							(-0.29839809 -0.03644317  0.078     )
							(-0.29347717 -0.03622015  0.078     )
							(-0.2885397  -0.03597807  0.078     )
							(-0.28358321 -0.03571736  0.078     )
							(-0.27860515 -0.03543838  0.078     )
							(-0.27360285 -0.0351414   0.078     )
							(-0.2685736  -0.03482664  0.078     )
							(-0.26351459 -0.03449426  0.078     )
							(-0.258423   -0.03414431  0.078     )
							(-0.25329597 -0.03377682  0.078     )
							(-0.24813063 -0.03339173  0.078     )
							(-0.24292409 -0.03298891  0.078     )
							(-0.23767352 -0.03256817  0.078     )
							(-0.23237608 -0.03212926  0.078     )
							(-0.22702902 -0.0316719   0.078     )
							(-0.22162962 -0.0311957   0.078     )
							(-0.21617528 -0.03070027  0.078     )
							(-0.21066345 -0.03018514  0.078     )
							(-0.20509172 -0.0296498   0.078     )
							(-0.19945783 -0.02909371  0.078     )
							(-0.19375962 -0.0285163   0.078     )
							(-0.18799512 -0.02791693  0.078     )
							(-0.18216252 -0.02729499  0.078     )
							(-0.17626023 -0.02664979  0.078     )
							(-0.17028685 -0.02598067  0.078     )
							(-0.1642412  -0.02528694  0.078     )
							(-0.15812235 -0.0245679   0.078     )
							(-0.15192963 -0.02382287  0.078     )
							(-0.14566265 -0.02305116  0.078     )
							(-0.13932131 -0.02225212  0.078     )
							(-0.13290579 -0.02142509  0.078     )
							(-0.12641664 -0.02056948  0.078     )
							(-0.11985471 -0.01968471  0.078     )
							(-0.11322124 -0.01877025  0.078     )
							(-0.10651781 -0.01782564  0.078     )
							(-0.09974643 -0.01685048  0.078     )
							(-0.09290948 -0.01584443  0.078     )
							(-0.0860098  -0.01480725  0.078     )
							(-0.07905063 -0.01373878  0.078     )
							(-0.07203571 -0.01263896  0.078     )
							(-0.06496923 -0.01150787  0.078     )
							(-0.05785587 -0.01034568  0.078     )
							(-0.05070084 -0.0091527   0.078     )
							(-0.04350985 -0.00792941  0.078     )
							(-0.03628917 -0.00667641  0.078     )
							(-0.02904563 -0.0053945   0.078     )

						)
);

boundary
(
    inOut
    {
        type patch;
        faces
        (
            ( 8  0  1  9)
            ( 0  2  3  1)
            (14 10 11 15)
            ( 2 14 15  3)
            (10  8  9 11)
        );
    }

    coandaUpper
    {
        type patch;
        faces
        (
            (24 22 23 25)
        );
    }

    coandaLower
    {
        type patch;
        faces
        (
            (30 32 33 31)
        );
    }

    surface
    {
        type wall;
        faces
        (
            ( 4 28 29  5)
            ( 4 36 37  5)
            (28 26 27 29)
            (26 24 25 27)
            (22 30 31 23)
            (32 34 35 33)
            (34 36 37 35)
        );
    }


);
