/*---------------------------------*- C++ -*-----------------------------------*/
//    //////////////      ///////////////
//    //////////////      //////////////
//         ////           ////             /////       ////  //  /// //// ////
//         ////     ////  ///////////   ///    ///  ///    ///   ////  ///  ///
//  ////   ////           ///////////   ///    ///  ///    ///   ///   ///  ///
//   //// ////            ////          ///    ///  ///    ///   ///   ///  ///
//     /////              ////            /////       ///// ///  ///   ///  ///
/*---------------------------------*- C++ -*-----------------------------------*/

FoamFile
{
		version			2.0;
		format			ascii;
		class				dictionary;
		object			blockMeshDict;
}

// ***************************************************************************** //

scale				1;

vertices
(
		(-16.0 0.0 -0.078)	//	0
		(-16.0 0.0 0.078)	//	1
		(-0.029040382477168322 -16.0 -0.078)	//	2
		(-0.029040382477168322 -16.0 0.078)	//	3
		(-1.0 0.0 -0.078)	//	4
		(-1.0 0.0 0.078)	//	5
		(-0.029040382477168322 0.005495974247021418 -0.078)	//	6
		(-0.029040382477168322 0.005495974247021418 0.078)	//	7
		(-0.029040382477168322 16.0 -0.078)	//	8
		(-0.029040382477168322 16.0 0.078)	//	9
		(-0.003045 16.0 -0.078)	//	10
		(-0.003045 16.0 0.078)	//	11
		(15.996952 0.0 -0.078)	//	12
		(15.996952 0.0 0.078)	//	13
		(-0.003045 -16.0 -0.078)	//	14
		(-0.003045 -16.0 0.078)	//	15
		(0.0 0.0 -0.078)	//	16
		(0.0 0.0 0.078)	//	17
		(-0.029040382477168322 -0.005495974247021418 -0.078)	//	18
		(-0.029040382477168322 -0.005495974247021418 0.078)	//	19
		(0.0 0.0 -0.078)	//	20
		(0.0 0.0 0.078)	//	21
		(-0.003048 0.003048 -0.078)	//	22
		(-0.003048 0.003048 0.078)	//	23
		(-0.003047 0.0032512 -0.078)	//	24
		(-0.003047 0.0032512 0.078)	//	25
		(-0.003046 0.0034798 -0.078)	//	26
		(-0.003046 0.0034798 0.078)	//	27
		(-0.029040382477168322 0.005495974247021418 -0.078)	//	28
		(-0.029040382477168322 0.005495974247021418 0.078)	//	29
		(-0.003048 -0.003048 -0.078)	//	30
		(-0.003048 -0.003048 0.078)	//	31
		(-0.003047 -0.0032512 -0.078)	//	32
		(-0.003047 -0.0032512 0.078)	//	33
		(-0.003046 -0.0034798 -0.078)	//	34
		(-0.003046 -0.0034798 0.078)	//	35
		(-0.029040382477168322 -0.005495974247021418 -0.078)	//	36
		(-0.029040382477168322 -0.005495974247021418 0.078)	//	37
);

blocks
(
		hex ( 4 28  8  0  5 29  9  1) (90 160 1) edgeGrading (((.5 .5 10) (.5 .5 0.1)) 0.1  0.1 ((.5 .5 10) (.5 .5 0.1)) 800 800 800 800 1 1 1 1) // 0
		hex (28 26 10  8 29 27 11  9) (20 160 1) simpleGrading (0.5  800  1) // 1
		hex (26 34 14 10 27 35 15 11) (160 160 1) simpleGrading ( 1  800  1) // 2
		hex (34 36  2 14 35 37  3 15) (20 160 1) simpleGrading (2  800  1) // 3
		hex (36  4  0  2 37  5  1  3) (90 160 1) edgeGrading (((.5 .5 10) (.5 .5 0.1)) 10  10 ((.5 .5 10) (.5 .5 0.1)) 800 800 800 800 1 1 1 1) // 4
		hex (24 32 34 26 25 33 35 27) (160 5 1) simpleGrading ( 1  2  1) // 5
		hex (22 30 32 24 23 31 33 25) (160 6 1) simpleGrading ( 1  1  1) // 6
);

edges
(
		arc  8  0  90.0  (0 0 1)
		arc  9  1  90.0  (0 0 1)
		arc  0  2  90.0  (0 0 1)
		arc  1  3  90.0  (0 0 1)
		arc 14 10 180.0  (0 0 1)
		arc 15 11 180.0  (0 0 1)
		arc 30 22 180.0  (0 0 1)
		arc 31 23 180.0  (0 0 1)
		arc 32 24 180.0  (0 0 1)
		arc 33 25 180.0  (0 0 1)
		arc 34 26 180.0  (0 0 1)
		arc 35 27 180.0  (0 0 1)
		spline 4 28 (
							(-0.99961056  0.0038486  -0.078     )
							(-0.99847251  0.00761757 -0.078     )
							(-0.99663005  0.01130099 -0.078     )
							(-0.99412571  0.01489359 -0.078     )
							(-0.9910004   0.01839073 -0.078     )
							(-0.98729346  0.02178834 -0.078     )
							(-0.98304264  0.02508293 -0.078     )
							(-0.97828415  0.0282715  -0.078     )
							(-0.9730527  0.0313516 -0.078    )
							(-0.96738149  0.03432121 -0.078     )
							(-0.96130226  0.03717879 -0.078     )
							(-0.95484533  0.0399232  -0.078     )
							(-0.94803959  0.04255371 -0.078     )
							(-0.94091256  0.04506995 -0.078     )
							(-0.9334904   0.04747191 -0.078     )
							(-0.92579793  0.0497599  -0.078     )
							(-0.91785868  0.0519345  -0.078     )
							(-0.9096949   0.05399662 -0.078     )
							(-0.90132758  0.05594739 -0.078     )
							(-0.89277651  0.05778819 -0.078     )
							(-0.88406027  0.05952059 -0.078     )
							(-0.87519627  0.06114638 -0.078     )
							(-0.86620079  0.06266752 -0.078     )
							(-0.85708898  0.06408611 -0.078     )
							(-0.84787494  0.0654044  -0.078     )
							(-0.83857168  0.06662475 -0.078     )
							(-0.82919119  0.06774963 -0.078     )
							(-0.81974447  0.0687816  -0.078     )
							(-0.81024153  0.06972326 -0.078     )
							(-0.80069146  0.07057729 -0.078     )
							(-0.79110239  0.07134641 -0.078     )
							(-0.78148162  0.07203334 -0.078     )
							(-0.77183553  0.07264084 -0.078     )
							(-0.76216972  0.07317165 -0.078     )
							(-0.75248896  0.0736285  -0.078     )
							(-0.74279724  0.07401409 -0.078     )
							(-0.73309782  0.07433109 -0.078     )
							(-0.72339324  0.0745821  -0.078     )
							(-0.71368536  0.07476969 -0.078     )
							(-0.70397536  0.07489634 -0.078     )
							(-0.69426381  0.07496446 -0.078     )
							(-0.68455068  0.07497638 -0.078     )
							(-0.67483535  0.07493432 -0.078     )
							(-0.66511669  0.07484042 -0.078     )
							(-0.65539302  0.0746967  -0.078     )
							(-0.64566222  0.07450506 -0.078     )
							(-0.63592168  0.07426729 -0.078     )
							(-0.62616839  0.07398507 -0.078     )
							(-0.61639894  0.07365992 -0.078     )
							(-0.60660957  0.07329325 -0.078     )
							(-0.59679617  0.07288633 -0.078     )
							(-0.58695434  0.0724403  -0.078     )
							(-0.57707939  0.07195615 -0.078     )
							(-0.56716642  0.07143473 -0.078     )
							(-0.5572103   0.07087675 -0.078     )
							(-0.54720571  0.0702828  -0.078     )
							(-0.53714719  0.06965329 -0.078     )
							(-0.52702918  0.06898851 -0.078     )
							(-0.51684601  0.06828863 -0.078     )
							(-0.50659194  0.06755365 -0.078     )
							(-0.49626125  0.06678346 -0.078     )
							(-0.48584818  0.06597781 -0.078     )
							(-0.47534703  0.06513633 -0.078     )
							(-0.46475216  0.06425853 -0.078     )
							(-0.45405804  0.06334379 -0.078     )
							(-0.44325925  0.0623914  -0.078     )
							(-0.43235055  0.06140054 -0.078     )
							(-0.42132689  0.06037027 -0.078     )
							(-0.41018345  0.0592996  -0.078     )
							(-0.39891566  0.05818743 -0.078     )
							(-0.38751924  0.05703259 -0.078     )
							(-0.37599023  0.05583387 -0.078     )
							(-0.36432505  0.05458997 -0.078     )
							(-0.35252047  0.05329958 -0.078     )
							(-0.3405737   0.05196134 -0.078     )
							(-0.32848239  0.05057387 -0.078     )
							(-0.3162447  0.0491358 -0.078    )
							(-0.30385927  0.04764573 -0.078     )
							(-0.29132531  0.04610232 -0.078     )
							(-0.27864261  0.04450423 -0.078     )
							(-0.26581158  0.04285018 -0.078     )
							(-0.25283327  0.04113896 -0.078     )
							(-0.23970942  0.03936941 -0.078     )
							(-0.22644247  0.0375405  -0.078     )
							(-0.21303562  0.03565128 -0.078     )
							(-0.19949286  0.03370096 -0.078     )
							(-0.18581897  0.03168886 -0.078     )
							(-0.1720196  0.0296145 -0.078    )
							(-0.15810127  0.02747755 -0.078     )
							(-0.14407142  0.02527793 -0.078     )
							(-0.12993846  0.02301574 -0.078     )
							(-0.11571174  0.02069135 -0.078     )
							(-0.10140167  0.0183054  -0.078     )
							(-0.0870197   0.01585881 -0.078     )
							(-0.07257834  0.01335282 -0.078     )
							(-0.05809127  0.01078899 -0.078     )
							(-0.04357328  0.00816927 -0.078     )

						)
		spline 4 36 (
							(-0.99961056 -0.0038486  -0.078     )
							(-0.99847251 -0.00761757 -0.078     )
							(-0.99663005 -0.01130099 -0.078     )
							(-0.99412571 -0.01489359 -0.078     )
							(-0.9910004  -0.01839073 -0.078     )
							(-0.98729346 -0.02178834 -0.078     )
							(-0.98304264 -0.02508293 -0.078     )
							(-0.97828415 -0.0282715  -0.078     )
							(-0.9730527 -0.0313516 -0.078    )
							(-0.96738149 -0.03432121 -0.078     )
							(-0.96130226 -0.03717879 -0.078     )
							(-0.95484533 -0.0399232  -0.078     )
							(-0.94803959 -0.04255371 -0.078     )
							(-0.94091256 -0.04506995 -0.078     )
							(-0.9334904  -0.04747191 -0.078     )
							(-0.92579793 -0.0497599  -0.078     )
							(-0.91785868 -0.0519345  -0.078     )
							(-0.9096949  -0.05399662 -0.078     )
							(-0.90132758 -0.05594739 -0.078     )
							(-0.89277651 -0.05778819 -0.078     )
							(-0.88406027 -0.05952059 -0.078     )
							(-0.87519627 -0.06114638 -0.078     )
							(-0.86620079 -0.06266752 -0.078     )
							(-0.85708898 -0.06408611 -0.078     )
							(-0.84787494 -0.0654044  -0.078     )
							(-0.83857168 -0.06662475 -0.078     )
							(-0.82919119 -0.06774963 -0.078     )
							(-0.81974447 -0.0687816  -0.078     )
							(-0.81024153 -0.06972326 -0.078     )
							(-0.80069146 -0.07057729 -0.078     )
							(-0.79110239 -0.07134641 -0.078     )
							(-0.78148162 -0.07203334 -0.078     )
							(-0.77183553 -0.07264084 -0.078     )
							(-0.76216972 -0.07317165 -0.078     )
							(-0.75248896 -0.0736285  -0.078     )
							(-0.74279724 -0.07401409 -0.078     )
							(-0.73309782 -0.07433109 -0.078     )
							(-0.72339324 -0.0745821  -0.078     )
							(-0.71368536 -0.07476969 -0.078     )
							(-0.70397536 -0.07489634 -0.078     )
							(-0.69426381 -0.07496446 -0.078     )
							(-0.68455068 -0.07497638 -0.078     )
							(-0.67483535 -0.07493432 -0.078     )
							(-0.66511669 -0.07484042 -0.078     )
							(-0.65539302 -0.0746967  -0.078     )
							(-0.64566222 -0.07450506 -0.078     )
							(-0.63592168 -0.07426729 -0.078     )
							(-0.62616839 -0.07398507 -0.078     )
							(-0.61639894 -0.07365992 -0.078     )
							(-0.60660957 -0.07329325 -0.078     )
							(-0.59679617 -0.07288633 -0.078     )
							(-0.58695434 -0.0724403  -0.078     )
							(-0.57707939 -0.07195615 -0.078     )
							(-0.56716642 -0.07143473 -0.078     )
							(-0.5572103  -0.07087675 -0.078     )
							(-0.54720571 -0.0702828  -0.078     )
							(-0.53714719 -0.06965329 -0.078     )
							(-0.52702918 -0.06898851 -0.078     )
							(-0.51684601 -0.06828863 -0.078     )
							(-0.50659194 -0.06755365 -0.078     )
							(-0.49626125 -0.06678346 -0.078     )
							(-0.48584818 -0.06597781 -0.078     )
							(-0.47534703 -0.06513633 -0.078     )
							(-0.46475216 -0.06425853 -0.078     )
							(-0.45405804 -0.06334379 -0.078     )
							(-0.44325925 -0.0623914  -0.078     )
							(-0.43235055 -0.06140054 -0.078     )
							(-0.42132689 -0.06037027 -0.078     )
							(-0.41018345 -0.0592996  -0.078     )
							(-0.39891566 -0.05818743 -0.078     )
							(-0.38751924 -0.05703259 -0.078     )
							(-0.37599023 -0.05583387 -0.078     )
							(-0.36432505 -0.05458997 -0.078     )
							(-0.35252047 -0.05329958 -0.078     )
							(-0.3405737  -0.05196134 -0.078     )
							(-0.32848239 -0.05057387 -0.078     )
							(-0.3162447 -0.0491358 -0.078    )
							(-0.30385927 -0.04764573 -0.078     )
							(-0.29132531 -0.04610232 -0.078     )
							(-0.27864261 -0.04450423 -0.078     )
							(-0.26581158 -0.04285018 -0.078     )
							(-0.25283327 -0.04113896 -0.078     )
							(-0.23970942 -0.03936941 -0.078     )
							(-0.22644247 -0.0375405  -0.078     )
							(-0.21303562 -0.03565128 -0.078     )
							(-0.19949286 -0.03370096 -0.078     )
							(-0.18581897 -0.03168886 -0.078     )
							(-0.1720196 -0.0296145 -0.078    )
							(-0.15810127 -0.02747755 -0.078     )
							(-0.14407142 -0.02527793 -0.078     )
							(-0.12993846 -0.02301574 -0.078     )
							(-0.11571174 -0.02069135 -0.078     )
							(-0.10140167 -0.0183054  -0.078     )
							(-0.0870197  -0.01585881 -0.078     )
							(-0.07257834 -0.01335282 -0.078     )
							(-0.05809127 -0.01078899 -0.078     )
							(-0.04357328 -0.00816927 -0.078     )

						)
		spline 5 29 (
							(-0.99961056  0.0038486   0.078     )
							(-0.99847251  0.00761757  0.078     )
							(-0.99663005  0.01130099  0.078     )
							(-0.99412571  0.01489359  0.078     )
							(-0.9910004   0.01839073  0.078     )
							(-0.98729346  0.02178834  0.078     )
							(-0.98304264  0.02508293  0.078     )
							(-0.97828415  0.0282715   0.078     )
							(-0.9730527  0.0313516  0.078    )
							(-0.96738149  0.03432121  0.078     )
							(-0.96130226  0.03717879  0.078     )
							(-0.95484533  0.0399232   0.078     )
							(-0.94803959  0.04255371  0.078     )
							(-0.94091256  0.04506995  0.078     )
							(-0.9334904   0.04747191  0.078     )
							(-0.92579793  0.0497599   0.078     )
							(-0.91785868  0.0519345   0.078     )
							(-0.9096949   0.05399662  0.078     )
							(-0.90132758  0.05594739  0.078     )
							(-0.89277651  0.05778819  0.078     )
							(-0.88406027  0.05952059  0.078     )
							(-0.87519627  0.06114638  0.078     )
							(-0.86620079  0.06266752  0.078     )
							(-0.85708898  0.06408611  0.078     )
							(-0.84787494  0.0654044   0.078     )
							(-0.83857168  0.06662475  0.078     )
							(-0.82919119  0.06774963  0.078     )
							(-0.81974447  0.0687816   0.078     )
							(-0.81024153  0.06972326  0.078     )
							(-0.80069146  0.07057729  0.078     )
							(-0.79110239  0.07134641  0.078     )
							(-0.78148162  0.07203334  0.078     )
							(-0.77183553  0.07264084  0.078     )
							(-0.76216972  0.07317165  0.078     )
							(-0.75248896  0.0736285   0.078     )
							(-0.74279724  0.07401409  0.078     )
							(-0.73309782  0.07433109  0.078     )
							(-0.72339324  0.0745821   0.078     )
							(-0.71368536  0.07476969  0.078     )
							(-0.70397536  0.07489634  0.078     )
							(-0.69426381  0.07496446  0.078     )
							(-0.68455068  0.07497638  0.078     )
							(-0.67483535  0.07493432  0.078     )
							(-0.66511669  0.07484042  0.078     )
							(-0.65539302  0.0746967   0.078     )
							(-0.64566222  0.07450506  0.078     )
							(-0.63592168  0.07426729  0.078     )
							(-0.62616839  0.07398507  0.078     )
							(-0.61639894  0.07365992  0.078     )
							(-0.60660957  0.07329325  0.078     )
							(-0.59679617  0.07288633  0.078     )
							(-0.58695434  0.0724403   0.078     )
							(-0.57707939  0.07195615  0.078     )
							(-0.56716642  0.07143473  0.078     )
							(-0.5572103   0.07087675  0.078     )
							(-0.54720571  0.0702828   0.078     )
							(-0.53714719  0.06965329  0.078     )
							(-0.52702918  0.06898851  0.078     )
							(-0.51684601  0.06828863  0.078     )
							(-0.50659194  0.06755365  0.078     )
							(-0.49626125  0.06678346  0.078     )
							(-0.48584818  0.06597781  0.078     )
							(-0.47534703  0.06513633  0.078     )
							(-0.46475216  0.06425853  0.078     )
							(-0.45405804  0.06334379  0.078     )
							(-0.44325925  0.0623914   0.078     )
							(-0.43235055  0.06140054  0.078     )
							(-0.42132689  0.06037027  0.078     )
							(-0.41018345  0.0592996   0.078     )
							(-0.39891566  0.05818743  0.078     )
							(-0.38751924  0.05703259  0.078     )
							(-0.37599023  0.05583387  0.078     )
							(-0.36432505  0.05458997  0.078     )
							(-0.35252047  0.05329958  0.078     )
							(-0.3405737   0.05196134  0.078     )
							(-0.32848239  0.05057387  0.078     )
							(-0.3162447  0.0491358  0.078    )
							(-0.30385927  0.04764573  0.078     )
							(-0.29132531  0.04610232  0.078     )
							(-0.27864261  0.04450423  0.078     )
							(-0.26581158  0.04285018  0.078     )
							(-0.25283327  0.04113896  0.078     )
							(-0.23970942  0.03936941  0.078     )
							(-0.22644247  0.0375405   0.078     )
							(-0.21303562  0.03565128  0.078     )
							(-0.19949286  0.03370096  0.078     )
							(-0.18581897  0.03168886  0.078     )
							(-0.1720196  0.0296145  0.078    )
							(-0.15810127  0.02747755  0.078     )
							(-0.14407142  0.02527793  0.078     )
							(-0.12993846  0.02301574  0.078     )
							(-0.11571174  0.02069135  0.078     )
							(-0.10140167  0.0183054   0.078     )
							(-0.0870197   0.01585881  0.078     )
							(-0.07257834  0.01335282  0.078     )
							(-0.05809127  0.01078899  0.078     )
							(-0.04357328  0.00816927  0.078     )

						)
		spline 5 37 (
							(-0.99961056 -0.0038486   0.078     )
							(-0.99847251 -0.00761757  0.078     )
							(-0.99663005 -0.01130099  0.078     )
							(-0.99412571 -0.01489359  0.078     )
							(-0.9910004  -0.01839073  0.078     )
							(-0.98729346 -0.02178834  0.078     )
							(-0.98304264 -0.02508293  0.078     )
							(-0.97828415 -0.0282715   0.078     )
							(-0.9730527 -0.0313516  0.078    )
							(-0.96738149 -0.03432121  0.078     )
							(-0.96130226 -0.03717879  0.078     )
							(-0.95484533 -0.0399232   0.078     )
							(-0.94803959 -0.04255371  0.078     )
							(-0.94091256 -0.04506995  0.078     )
							(-0.9334904  -0.04747191  0.078     )
							(-0.92579793 -0.0497599   0.078     )
							(-0.91785868 -0.0519345   0.078     )
							(-0.9096949  -0.05399662  0.078     )
							(-0.90132758 -0.05594739  0.078     )
							(-0.89277651 -0.05778819  0.078     )
							(-0.88406027 -0.05952059  0.078     )
							(-0.87519627 -0.06114638  0.078     )
							(-0.86620079 -0.06266752  0.078     )
							(-0.85708898 -0.06408611  0.078     )
							(-0.84787494 -0.0654044   0.078     )
							(-0.83857168 -0.06662475  0.078     )
							(-0.82919119 -0.06774963  0.078     )
							(-0.81974447 -0.0687816   0.078     )
							(-0.81024153 -0.06972326  0.078     )
							(-0.80069146 -0.07057729  0.078     )
							(-0.79110239 -0.07134641  0.078     )
							(-0.78148162 -0.07203334  0.078     )
							(-0.77183553 -0.07264084  0.078     )
							(-0.76216972 -0.07317165  0.078     )
							(-0.75248896 -0.0736285   0.078     )
							(-0.74279724 -0.07401409  0.078     )
							(-0.73309782 -0.07433109  0.078     )
							(-0.72339324 -0.0745821   0.078     )
							(-0.71368536 -0.07476969  0.078     )
							(-0.70397536 -0.07489634  0.078     )
							(-0.69426381 -0.07496446  0.078     )
							(-0.68455068 -0.07497638  0.078     )
							(-0.67483535 -0.07493432  0.078     )
							(-0.66511669 -0.07484042  0.078     )
							(-0.65539302 -0.0746967   0.078     )
							(-0.64566222 -0.07450506  0.078     )
							(-0.63592168 -0.07426729  0.078     )
							(-0.62616839 -0.07398507  0.078     )
							(-0.61639894 -0.07365992  0.078     )
							(-0.60660957 -0.07329325  0.078     )
							(-0.59679617 -0.07288633  0.078     )
							(-0.58695434 -0.0724403   0.078     )
							(-0.57707939 -0.07195615  0.078     )
							(-0.56716642 -0.07143473  0.078     )
							(-0.5572103  -0.07087675  0.078     )
							(-0.54720571 -0.0702828   0.078     )
							(-0.53714719 -0.06965329  0.078     )
							(-0.52702918 -0.06898851  0.078     )
							(-0.51684601 -0.06828863  0.078     )
							(-0.50659194 -0.06755365  0.078     )
							(-0.49626125 -0.06678346  0.078     )
							(-0.48584818 -0.06597781  0.078     )
							(-0.47534703 -0.06513633  0.078     )
							(-0.46475216 -0.06425853  0.078     )
							(-0.45405804 -0.06334379  0.078     )
							(-0.44325925 -0.0623914   0.078     )
							(-0.43235055 -0.06140054  0.078     )
							(-0.42132689 -0.06037027  0.078     )
							(-0.41018345 -0.0592996   0.078     )
							(-0.39891566 -0.05818743  0.078     )
							(-0.38751924 -0.05703259  0.078     )
							(-0.37599023 -0.05583387  0.078     )
							(-0.36432505 -0.05458997  0.078     )
							(-0.35252047 -0.05329958  0.078     )
							(-0.3405737  -0.05196134  0.078     )
							(-0.32848239 -0.05057387  0.078     )
							(-0.3162447 -0.0491358  0.078    )
							(-0.30385927 -0.04764573  0.078     )
							(-0.29132531 -0.04610232  0.078     )
							(-0.27864261 -0.04450423  0.078     )
							(-0.26581158 -0.04285018  0.078     )
							(-0.25283327 -0.04113896  0.078     )
							(-0.23970942 -0.03936941  0.078     )
							(-0.22644247 -0.0375405   0.078     )
							(-0.21303562 -0.03565128  0.078     )
							(-0.19949286 -0.03370096  0.078     )
							(-0.18581897 -0.03168886  0.078     )
							(-0.1720196 -0.0296145  0.078    )
							(-0.15810127 -0.02747755  0.078     )
							(-0.14407142 -0.02527793  0.078     )
							(-0.12993846 -0.02301574  0.078     )
							(-0.11571174 -0.02069135  0.078     )
							(-0.10140167 -0.0183054   0.078     )
							(-0.0870197  -0.01585881  0.078     )
							(-0.07257834 -0.01335282  0.078     )
							(-0.05809127 -0.01078899  0.078     )
							(-0.04357328 -0.00816927  0.078     )

						)
);

boundary
(
    inOut
    {
        type patch;
        faces
        (
            ( 8  0  1  9)
            ( 0  2  3  1)
            (14 10 11 15)
            ( 2 14 15  3)
            (10  8  9 11)
        );
    }

    coandaUpper
    {
        type patch;
        faces
        (
            (24 22 23 25)
        );
    }

    coandaLower
    {
        type patch;
        faces
        (
            (30 32 33 31)
        );
    }

    surface
    {
        type wall;
        faces
        (
            ( 4 28 29  5)
            ( 4 36 37  5)
            (28 26 27 29)
            (26 24 25 27)
            (22 30 31 23)
            (32 34 35 33)
            (34 36 37 35)
        );
    }


);
