/*--------------------------------*- C++ -*----------------------------------*\
  =========                 |
  \\      /  F ield         | OpenFOAM: The Open Source CFD Toolbox
   \\    /   O peration     | Website:  https://openfoam.org
    \\  /    A nd           | Version:  8
     \\/     M anipulation  |
\*---------------------------------------------------------------------------*/
FoamFile
{
    version     2.0;
    format      ascii;
    class       polyBoundaryMesh;
    location    "constant/polyMesh";
    object      boundary;
}
// * * * * * * * * * * * * * * * * * * * * * * * * * * * * * * * * * * * * * //

8
(
    down
    {
        type            symmetryPlane;
        inGroups        List<word> 1(symmetryPlane);
        nFaces          200;
        startFace       344850;
    }
    right
    {
        type            patch;
        nFaces          450;
        startFace       345050;
    }
    up
    {
        type            symmetryPlane;
        inGroups        List<word> 1(symmetryPlane);
        nFaces          200;
        startFace       345500;
    }
    left
    {
        type            patch;
        nFaces          200;
        startFace       345700;
    }
    cylinder
    {
        type            wall;
        inGroups        List<word> 1(wall);
        nFaces          1000;
        startFace       345900;
    }
    cylinderInner
    {
        type            wall;
        inGroups        List<word> 1(wall);
        nFaces          200;
        startFace       346900;
    }
    slot
    {
        type            wall;
        inGroups        List<word> 1(wall);
        nFaces          50;
        startFace       347100;
    }
    defaultFaces
    {
        type            empty;
        inGroups        List<word> 1(empty);
        nFaces          346000;
        startFace       347150;
    }
)

// ************************************************************************* //
