/*--------------------------------*- C++ -*----------------------------------*\
  =========                 |
  \\      /  F ield         | OpenFOAM: The Open Source CFD Toolbox
   \\    /   O peration     | Website:  https://openfoam.org
    \\  /    A nd           | Version:  8
     \\/     M anipulation  |
\*---------------------------------------------------------------------------*/
FoamFile
{
    version     2.0;
    format      ascii;
    class       polyBoundaryMesh;
    location    "constant/polyMesh";
    object      boundary;
}
// * * * * * * * * * * * * * * * * * * * * * * * * * * * * * * * * * * * * * //

7
(
    down
    {
        type            symmetryPlane;
        inGroups        List<word> 1(symmetryPlane);
        nFaces          400;
        startFace       229262;
    }
    right
    {
        type            patch;
        nFaces          200;
        startFace       229662;
    }
    up
    {
        type            symmetryPlane;
        inGroups        List<word> 1(symmetryPlane);
        nFaces          400;
        startFace       229862;
    }
    left
    {
        type            patch;
        nFaces          200;
        startFace       230262;
    }
    front
    {
        type            empty;
        inGroups        List<word> 1(empty);
        nFaces          114745;
        startFace       230462;
    }
    back
    {
        type            empty;
        inGroups        List<word> 1(empty);
        nFaces          114745;
        startFace       345207;
    }
    wing
    {
        type            wall;
        inGroups        List<word> 1(wall);
        nFaces          449;
        startFace       459952;
    }
)

// ************************************************************************* //
