/*---------------------------------*- C++ -*-----------------------------------*/
//    //////////////      ///////////////
//    //////////////      //////////////
//         ////           ////             /////       ////  //  /// //// ////
//         ////     ////  ///////////   ///    ///  ///    ///   ////  ///  ///
//  ////   ////           ///////////   ///    ///  ///    ///   ///   ///  ///
//   //// ////            ////          ///    ///  ///    ///   ///   ///  ///
//     /////              ////            /////       ///// ///  ///   ///  ///
/*---------------------------------*- C++ -*-----------------------------------*/

FoamFile
{
		version			2.0;
		format			ascii;
		class				volScalarField;
		object			p;
}
// * * * * * * * * * * * * * * * * * * * * * * * * * * * * * * * * * * * * * //

dimensions			[1 -1 -2 0 0 0 0];

internalField		uniform 100000;

boundaryField
{
		inOut
		{
				type            fixedValue;
				value           $internalField;
		}

		surface
		{
				type						zeroGradient;
		}

		coandaUpper
		{
				type 						zeroGradient;
		}
		coandaLower
		{
				type 						zeroGradient;
		}

		front
		{
				type						zeroGradient;
		}

    back
		{
				type						zeroGradient;
		}


		defaultFaces
		{
				type						empty;
		}
}

// ************************************************************************* //
