/*--------------------------------*- C++ -*----------------------------------*\
  =========                 |
  \\      /  F ield         | OpenFOAM: The Open Source CFD Toolbox
   \\    /   O peration     | Website:  https://openfoam.org
    \\  /    A nd           | Version:  8
     \\/     M anipulation  |
\*---------------------------------------------------------------------------*/
FoamFile
{
    version     2.0;
    format      ascii;
    class       polyBoundaryMesh;
    location    "constant/polyMesh";
    object      boundary;
}
// * * * * * * * * * * * * * * * * * * * * * * * * * * * * * * * * * * * * * //

8
(
    down
    {
        type            symmetryPlane;
        inGroups        List<word> 1(symmetryPlane);
        nFaces          200;
        startFace       229340;
    }
    right
    {
        type            patch;
        nFaces          200;
        startFace       229540;
    }
    up
    {
        type            symmetryPlane;
        inGroups        List<word> 1(symmetryPlane);
        nFaces          260;
        startFace       229740;
    }
    left
    {
        type            patch;
        nFaces          200;
        startFace       230000;
    }
    cylinder
    {
        type            wall;
        inGroups        List<word> 1(wall);
        nFaces          800;
        startFace       230200;
    }
    cylinderInner
    {
        type            wall;
        inGroups        List<word> 1(wall);
        nFaces          400;
        startFace       231000;
    }
    slot
    {
        type            patch;
        nFaces          60;
        startFace       231400;
    }
    defaultFaces
    {
        type            empty;
        inGroups        List<word> 1(empty);
        nFaces          230400;
        startFace       231460;
    }
)

// ************************************************************************* //
