/*--------------------------------*- C++ -*----------------------------------*\
  =========                 |
  \\      /  F ield         | OpenFOAM: The Open Source CFD Toolbox
   \\    /   O peration     | Website:  https://openfoam.org
    \\  /    A nd           | Version:  8
     \\/     M anipulation  |
\*---------------------------------------------------------------------------*/
FoamFile
{
    version     2.0;
    format      ascii;
    class       polyBoundaryMesh;
    location    "constant/polyMesh";
    object      boundary;
}
// * * * * * * * * * * * * * * * * * * * * * * * * * * * * * * * * * * * * * //

7
(
    down
    {
        type            patch;
        nFaces          400;
        startFace       184250;
    }
    right
    {
        type            patch;
        nFaces          430;
        startFace       184650;
    }
    up
    {
        type            patch;
        nFaces          240;
        startFace       185080;
    }
    meanFlow
    {
        type            patch;
        nFaces          220;
        startFace       185320;
    }
    surface
    {
        type            wall;
        inGroups        List<word> 1(wall);
        nFaces          1330;
        startFace       185540;
    }
    coandaInlet
    {
        type            patch;
        nFaces          80;
        startFace       186870;
    }
    defaultFaces
    {
        type            empty;
        inGroups        List<word> 1(empty);
        nFaces          185600;
        startFace       186950;
    }
)

// ************************************************************************* //
