/*--------------------------------*- C++ -*----------------------------------*\
  =========                 |
  \\      /  F ield         | OpenFOAM: The Open Source CFD Toolbox
   \\    /   O peration     | Website:  https://openfoam.org
    \\  /    A nd           | Version:  9
     \\/     M anipulation  |
\*---------------------------------------------------------------------------*/
FoamFile
{
    format      ascii;
    class       polyBoundaryMesh;
    location    "constant/polyMesh";
    object      boundary;
}
// * * * * * * * * * * * * * * * * * * * * * * * * * * * * * * * * * * * * * //

8
(
    down
    {
        type            patch;
        nFaces          190;
        startFace       72705;
    }
    right
    {
        type            patch;
        nFaces          200;
        startFace       72895;
    }
    up
    {
        type            patch;
        nFaces          210;
        startFace       73095;
    }
    meanFlow
    {
        type            patch;
        nFaces          120;
        startFace       73305;
    }
    surface
    {
        type            wall;
        inGroups        List<word> 1(wall);
        nFaces          465;
        startFace       73425;
    }
    surfaceInner
    {
        type            wall;
        inGroups        List<word> 1(wall);
        nFaces          90;
        startFace       73890;
    }
    coandaInlet
    {
        type            patch;
        nFaces          15;
        startFace       73980;
    }
    defaultFaces
    {
        type            empty;
        inGroups        List<word> 1(empty);
        nFaces          73350;
        startFace       73995;
    }
)

// ************************************************************************* //
