/*--------------------------------*- C++ -*----------------------------------*\
  =========                 |
  \\      /  F ield         | OpenFOAM: The Open Source CFD Toolbox
   \\    /   O peration     | Website:  https://openfoam.org
    \\  /    A nd           | Version:  9
     \\/     M anipulation  |
\*---------------------------------------------------------------------------*/
FoamFile
{
    format      ascii;
    class       polyBoundaryMesh;
    location    "constant/polyMesh";
    object      boundary;
}
// * * * * * * * * * * * * * * * * * * * * * * * * * * * * * * * * * * * * * //

8
(
    down
    {
        type            patch;
        nFaces          198;
        startFace       62830;
    }
    right
    {
        type            patch;
        nFaces          185;
        startFace       63028;
    }
    up
    {
        type            patch;
        nFaces          192;
        startFace       63213;
    }
    meanFlow
    {
        type            patch;
        nFaces          108;
        startFace       63405;
    }
    surface
    {
        type            wall;
        inGroups        List<word> 1(wall);
        nFaces          452;
        startFace       63513;
    }
    surfaceInner
    {
        type            wall;
        inGroups        List<word> 1(wall);
        nFaces          90;
        startFace       63965;
    }
    coandaInlet
    {
        type            patch;
        nFaces          15;
        startFace       64055;
    }
    defaultFaces
    {
        type            empty;
        inGroups        List<word> 1(empty);
        nFaces          63450;
        startFace       64070;
    }
)

// ************************************************************************* //
