/*--------------------------------*- C++ -*----------------------------------*\
  =========                 |
  \\      /  F ield         | OpenFOAM: The Open Source CFD Toolbox
   \\    /   O peration     | Website:  https://openfoam.org
    \\  /    A nd           | Version:  9
     \\/     M anipulation  |
\*---------------------------------------------------------------------------*/
FoamFile
{
    format      ascii;
    class       polyBoundaryMesh;
    location    "constant/polyMesh";
    object      boundary;
}
// * * * * * * * * * * * * * * * * * * * * * * * * * * * * * * * * * * * * * //

8
(
    down
    {
        type            patch;
        nFaces          230;
        startFace       122145;
    }
    right
    {
        type            patch;
        nFaces          260;
        startFace       122375;
    }
    up
    {
        type            patch;
        nFaces          270;
        startFace       122635;
    }
    meanFlow
    {
        type            patch;
        nFaces          160;
        startFace       122905;
    }
    surface
    {
        type            wall;
        inGroups        List<word> 1(wall);
        nFaces          585;
        startFace       123065;
    }
    surfaceInner
    {
        type            wall;
        inGroups        List<word> 1(wall);
        nFaces          90;
        startFace       123650;
    }
    coandaInlet
    {
        type            patch;
        nFaces          15;
        startFace       123740;
    }
    defaultFaces
    {
        type            empty;
        inGroups        List<word> 1(empty);
        nFaces          122950;
        startFace       123755;
    }
)

// ************************************************************************* //
