/*--------------------------------*- C++ -*----------------------------------*\
  =========                 |
  \\      /  F ield         | OpenFOAM: The Open Source CFD Toolbox
   \\    /   O peration     | Website:  https://openfoam.org
    \\  /    A nd           | Version:  10
     \\/     M anipulation  |
\*---------------------------------------------------------------------------*/
FoamFile
{
    format      ascii;
    class       polyBoundaryMesh;
    location    "constant/polyMesh";
    object      boundary;
}
// * * * * * * * * * * * * * * * * * * * * * * * * * * * * * * * * * * * * * //

8
(
    down
    {
        type            patch;
        nFaces          230;
        startFace       138465;
    }
    right
    {
        type            patch;
        nFaces          300;
        startFace       138695;
    }
    up
    {
        type            patch;
        nFaces          290;
        startFace       138995;
    }
    meanFlow
    {
        type            patch;
        nFaces          210;
        startFace       139285;
    }
    surface
    {
        type            wall;
        inGroups        List<word> 1(wall);
        nFaces          705;
        startFace       139495;
    }
    surfaceInner
    {
        type            wall;
        inGroups        List<word> 1(wall);
        nFaces          30;
        startFace       140200;
    }
    coandaInlet
    {
        type            patch;
        nFaces          5;
        startFace       140230;
    }
    defaultFaces
    {
        type            empty;
        inGroups        List<word> 1(empty);
        nFaces          139350;
        startFace       140235;
    }
)

// ************************************************************************* //
