/*--------------------------------*- C++ -*----------------------------------*\
  =========                 |
  \\      /  F ield         | OpenFOAM: The Open Source CFD Toolbox
   \\    /   O peration     | Website:  https://openfoam.org
    \\  /    A nd           | Version:  9
     \\/     M anipulation  |
\*---------------------------------------------------------------------------*/
FoamFile
{
    format      ascii;
    class       polyBoundaryMesh;
    location    "constant/polyMesh";
    object      boundary;
}
// * * * * * * * * * * * * * * * * * * * * * * * * * * * * * * * * * * * * * //

8
(
    down
    {
        type            patch;
        nFaces          180;
        startFace       69932;
    }
    right
    {
        type            patch;
        nFaces          208;
        startFace       70112;
    }
    up
    {
        type            patch;
        nFaces          180;
        startFace       70320;
    }
    meanFlow
    {
        type            patch;
        nFaces          120;
        startFace       70500;
    }
    surface
    {
        type            wall;
        inGroups        List<word> 1(wall);
        nFaces          428;
        startFace       70620;
    }
    surfaceInner
    {
        type            wall;
        inGroups        List<word> 1(wall);
        nFaces          120;
        startFace       71048;
    }
    coandaInlet
    {
        type            patch;
        nFaces          20;
        startFace       71168;
    }
    defaultFaces
    {
        type            empty;
        inGroups        List<word> 1(empty);
        nFaces          70560;
        startFace       71188;
    }
)

// ************************************************************************* //
