/*--------------------------------*- C++ -*----------------------------------*\
  =========                 |
  \\      /  F ield         | OpenFOAM: The Open Source CFD Toolbox
   \\    /   O peration     | Website:  https://openfoam.org
    \\  /    A nd           | Version:  9
     \\/     M anipulation  |
\*---------------------------------------------------------------------------*/
FoamFile
{
    format      ascii;
    class       polyBoundaryMesh;
    location    "constant/polyMesh";
    object      boundary;
}
// * * * * * * * * * * * * * * * * * * * * * * * * * * * * * * * * * * * * * //

8
(
    down
    {
        type            patch;
        nFaces          120;
        startFace       46395;
    }
    right
    {
        type            patch;
        nFaces          175;
        startFace       46515;
    }
    up
    {
        type            patch;
        nFaces          150;
        startFace       46690;
    }
    meanFlow
    {
        type            patch;
        nFaces          100;
        startFace       46840;
    }
    surface
    {
        type            wall;
        inGroups        List<word> 1(wall);
        nFaces          325;
        startFace       46940;
    }
    surfaceInner
    {
        type            wall;
        inGroups        List<word> 1(wall);
        nFaces          120;
        startFace       47265;
    }
    coandaInlet
    {
        type            patch;
        nFaces          20;
        startFace       47385;
    }
    defaultFaces
    {
        type            empty;
        inGroups        List<word> 1(empty);
        nFaces          46900;
        startFace       47405;
    }
)

// ************************************************************************* //
