/*--------------------------------*- C++ -*----------------------------------*\
  =========                 |
  \\      /  F ield         | OpenFOAM: The Open Source CFD Toolbox
   \\    /   O peration     | Website:  https://openfoam.org
    \\  /    A nd           | Version:  8
     \\/     M anipulation  |
\*---------------------------------------------------------------------------*/
FoamFile
{
    version     2.0;
    format      ascii;
    class       polyBoundaryMesh;
    location    "constant/polyMesh";
    object      boundary;
}
// * * * * * * * * * * * * * * * * * * * * * * * * * * * * * * * * * * * * * //

7
(
    down
    {
        type            symmetryPlane;
        inGroups        List<word> 1(symmetryPlane);
        nFaces          400;
        startFace       225025;
    }
    right
    {
        type            patch;
        nFaces          200;
        startFace       225425;
    }
    up
    {
        type            symmetryPlane;
        inGroups        List<word> 1(symmetryPlane);
        nFaces          400;
        startFace       225625;
    }
    left
    {
        type            patch;
        nFaces          200;
        startFace       226025;
    }
    front
    {
        type            empty;
        inGroups        List<word> 1(empty);
        nFaces          112610;
        startFace       226225;
    }
    back
    {
        type            empty;
        inGroups        List<word> 1(empty);
        nFaces          112610;
        startFace       338835;
    }
    wing
    {
        type            wall;
        inGroups        List<word> 1(wall);
        nFaces          338;
        startFace       451445;
    }
)

// ************************************************************************* //
