/*--------------------------------*- C++ -*----------------------------------*\
  =========                 |
  \\      /  F ield         | OpenFOAM: The Open Source CFD Toolbox
   \\    /   O peration     | Website:  https://openfoam.org
    \\  /    A nd           | Version:  10
     \\/     M anipulation  |
\*---------------------------------------------------------------------------*/
FoamFile
{
    format      ascii;
    class       polyBoundaryMesh;
    location    "constant/polyMesh";
    object      boundary;
}
// * * * * * * * * * * * * * * * * * * * * * * * * * * * * * * * * * * * * * //

10
(
    down
    {
        type            patch;
        nFaces          0;
        startFace       17573;
    }
    right
    {
        type            patch;
        nFaces          0;
        startFace       17573;
    }
    up
    {
        type            patch;
        nFaces          0;
        startFace       17573;
    }
    meanFlow
    {
        type            patch;
        nFaces          10;
        startFace       17573;
    }
    coandaUpper
    {
        type            patch;
        nFaces          0;
        startFace       17583;
    }
    coandaLower
    {
        type            patch;
        nFaces          0;
        startFace       17583;
    }
    surface
    {
        type            wall;
        inGroups        List<word> 1(wall);
        nFaces          128;
        startFace       17583;
    }
    defaultFaces
    {
        type            empty;
        inGroups        List<word> 1(empty);
        nFaces          17836;
        startFace       17711;
    }
    procBoundary1to0
    {
        type            processor;
        inGroups        List<word> 1(processor);
        nFaces          253;
        startFace       35547;
        matchTolerance  0.0001;
        myProcNo        1;
        neighbProcNo    0;
    }
    procBoundary1to2
    {
        type            processor;
        inGroups        List<word> 1(processor);
        nFaces          135;
        startFace       35800;
        matchTolerance  0.0001;
        myProcNo        1;
        neighbProcNo    2;
    }
)

// ************************************************************************* //
