/*--------------------------------*- C++ -*----------------------------------*\
  =========                 |
  \\      /  F ield         | OpenFOAM: The Open Source CFD Toolbox
   \\    /   O peration     | Website:  https://openfoam.org
    \\  /    A nd           | Version:  10
     \\/     M anipulation  |
\*---------------------------------------------------------------------------*/
FoamFile
{
    format      ascii;
    class       polyBoundaryMesh;
    location    "constant/polyMesh";
    object      boundary;
}
// * * * * * * * * * * * * * * * * * * * * * * * * * * * * * * * * * * * * * //

8
(
    down
    {
        type            patch;
        nFaces          380;
        startFace       1056490;
    }
    right
    {
        type            patch;
        nFaces          150;
        startFace       1056870;
    }
    up
    {
        type            patch;
        nFaces          380;
        startFace       1057020;
    }
    meanFlow
    {
        type            patch;
        nFaces          300;
        startFace       1057400;
    }
    surface
    {
        type            wall;
        inGroups        List<word> 1(wall);
        nFaces          1510;
        startFace       1057700;
    }
    coandaUpper
    {
        type            patch;
        nFaces          150;
        startFace       1059210;
    }
    coandaLower
    {
        type            patch;
        nFaces          150;
        startFace       1059360;
    }
    defaultFaces
    {
        type            empty;
        inGroups        List<word> 1(empty);
        nFaces          1058000;
        startFace       1059510;
    }
)

// ************************************************************************* //
