/*---------------------------------*- C++ -*-----------------------------------*/
//    //////////////      ///////////////
//    //////////////      //////////////
//         ////           ////             /////       ////  //  /// //// ////
//         ////     ////  ///////////   ///    ///  ///    ///   ////  ///  ///
//  ////   ////           ///////////   ///    ///  ///    ///   ///   ///  ///
//   //// ////            ////          ///    ///  ///    ///   ///   ///  ///
//     /////              ////            /////       ///// ///  ///   ///  ///
/*---------------------------------*- C++ -*-----------------------------------*/

FoamFile
{
		version			2.0;
		format			ascii;
		class				dictionary;
		object			blockMeshDict;
}

// ***************************************************************************** //

scale				1;

vertices
(
		(-4.8 0.0 -0.078)	//	0
		(-4.8 0.0 0.078)	//	1
		(-0.026579310471204484 -4.8 -0.078)	//	2
		(-0.026579310471204484 -4.8 0.078)	//	3
		(-0.3 0.0 -0.078)	//	4
		(-0.3 0.0 0.078)	//	5
		(-0.026579310471204484 0.003912429527595251 -0.078)	//	6
		(-0.026579310471204484 0.003912429527595251 0.078)	//	7
		(-0.026579310471204484 4.8 -0.078)	//	8
		(-0.026579310471204484 4.8 0.078)	//	9
		(-0.003045 4.8 -0.078)	//	10
		(-0.003045 4.8 0.078)	//	11
		(4.796952 0.0 -0.078)	//	12
		(4.796952 0.0 0.078)	//	13
		(-0.003045 -4.8 -0.078)	//	14
		(-0.003045 -4.8 0.078)	//	15
		(0.0 0.0 -0.078)	//	16
		(0.0 0.0 0.078)	//	17
		(-0.026579310471204484 -0.003912429527595251 -0.078)	//	18
		(-0.026579310471204484 -0.003912429527595251 0.078)	//	19
		(0.0 0.0 -0.078)	//	20
		(0.0 0.0 0.078)	//	21
		(-0.003048 0.003048 -0.078)	//	22
		(-0.003048 0.003048 0.078)	//	23
		(-0.003047 0.0032512 -0.078)	//	24
		(-0.003047 0.0032512 0.078)	//	25
		(-0.003046 0.0034798 -0.078)	//	26
		(-0.003046 0.0034798 0.078)	//	27
		(-0.026579310471204484 0.003912429527595251 -0.078)	//	28
		(-0.026579310471204484 0.003912429527595251 0.078)	//	29
		(-0.003048 -0.003048 -0.078)	//	30
		(-0.003048 -0.003048 0.078)	//	31
		(-0.003047 -0.0032512 -0.078)	//	32
		(-0.003047 -0.0032512 0.078)	//	33
		(-0.003046 -0.0034798 -0.078)	//	34
		(-0.003046 -0.0034798 0.078)	//	35
		(-0.026579310471204484 -0.003912429527595251 -0.078)	//	36
		(-0.026579310471204484 -0.003912429527595251 0.078)	//	37
);

blocks
(
		hex ( 4 28  8  0  5 29  9  1) (40 40 1) edgeGrading (((.5 .5 10) (.5 .5 0.1)) 0.1  0.1 ((.5 .5 10) (.5 .5 0.1)) 1200 1200 1200 1200 1 1 1 1) // 0
		hex (28 26 10  8 29 27 11  9) (10 40 1) simpleGrading (1.0  1200  1) // 1
		hex (26 34 14 10 27 35 15 11) (60 40 1) simpleGrading ( 1  1200  1) // 2
		hex (34 36  2 14 35 37  3 15) (10 40 1) simpleGrading (1  1200  1) // 3
		hex (36  4  0  2 37  5  1  3) (40 40 1) edgeGrading (((.5 .5 10) (.5 .5 0.1)) 10  10 ((.5 .5 10) (.5 .5 0.1)) 1200 1200 1200 1200 1 1 1 1) // 4
		hex (24 32 34 26 25 33 35 27) (60 1 1) simpleGrading ( 1  2  1) // 5
		hex (22 30 32 24 23 31 33 25) (60 2 1) simpleGrading ( 1  1  1) // 6
);

edges
(
		arc  8  0  90.0  (0 0 1)
		arc  9  1  90.0  (0 0 1)
		arc  0  2  90.0  (0 0 1)
		arc  1  3  90.0  (0 0 1)
		arc 14 10 180.0  (0 0 1)
		arc 15 11 180.0  (0 0 1)
		arc 30 22 180.0  (0 0 1)
		arc 31 23 180.0  (0 0 1)
		arc 32 24 180.0  (0 0 1)
		arc 33 25 180.0  (0 0 1)
		arc 34 26 180.0  (0 0 1)
		arc 35 27 180.0  (0 0 1)
		spline 4 28 (
							(-0.29989847  0.0009712  -0.078     )
							(-0.29959982  0.00191558 -0.078     )
							(-0.29911276  0.00283278 -0.078     )
							(-0.29844571  0.00372249 -0.078     )
							(-0.29760688  0.00458446 -0.078     )
							(-0.2966042   0.00541848 -0.078     )
							(-0.29544535  0.00622439 -0.078     )
							(-0.29413777  0.00700207 -0.078     )
							(-0.29268869  0.00775145 -0.078     )
							(-0.29110507  0.00847248 -0.078     )
							(-0.28939366  0.00916518 -0.078     )
							(-0.28756098  0.00982959 -0.078     )
							(-0.28561334  0.01046579 -0.078     )
							(-0.28355682  0.01107389 -0.078     )
							(-0.28139731  0.01165404 -0.078     )
							(-0.27914048  0.01220642 -0.078     )
							(-0.27679179  0.01273123 -0.078     )
							(-0.27435652  0.01322872 -0.078     )
							(-0.27183975  0.01369915 -0.078     )
							(-0.26924637  0.01414281 -0.078     )
							(-0.26658108  0.01456001 -0.078     )
							(-0.2638484  0.0149511 -0.078    )
							(-0.26105269  0.01531642 -0.078     )
							(-0.2581981   0.01565637 -0.078     )
							(-0.25528864  0.01597135 -0.078     )
							(-0.25232816  0.01626176 -0.078     )
							(-0.24932031  0.01652806 -0.078     )
							(-0.24626862  0.01677068 -0.078     )
							(-0.24317645  0.0169901  -0.078     )
							(-0.24004701  0.01718679 -0.078     )
							(-0.23688335  0.01736126 -0.078     )
							(-0.2336884   0.01751399 -0.078     )
							(-0.23046492  0.01764552 -0.078     )
							(-0.22721557  0.01775635 -0.078     )
							(-0.22394284  0.01784702 -0.078     )
							(-0.22064911  0.01791807 -0.078     )
							(-0.21733662  0.01797005 -0.078     )
							(-0.21400749  0.0180035  -0.078     )
							(-0.21066373  0.01801897 -0.078     )
							(-0.2073072   0.01801702 -0.078     )
							(-0.20393968  0.01799822 -0.078     )
							(-0.20056281  0.01796311 -0.078     )
							(-0.19717814  0.01791226 -0.078     )
							(-0.1937871   0.01784622 -0.078     )
							(-0.19039102  0.01776555 -0.078     )
							(-0.18699112  0.0176708  -0.078     )
							(-0.18358853  0.01756251 -0.078     )
							(-0.18018428  0.01744122 -0.078     )
							(-0.1767793   0.01730748 -0.078     )
							(-0.17337443  0.0171618  -0.078     )
							(-0.16997042  0.0170047  -0.078     )
							(-0.16656795  0.0168367  -0.078     )
							(-0.16316757  0.01665828 -0.078     )
							(-0.15976979  0.01646993 -0.078     )
							(-0.15637502  0.01627213 -0.078     )
							(-0.15298358  0.01606532 -0.078     )
							(-0.14959573  0.01584995 -0.078     )
							(-0.14621165  0.01562645 -0.078     )
							(-0.14283143  0.01539521 -0.078     )
							(-0.1394551   0.01515663 -0.078     )
							(-0.13608262  0.01491106 -0.078     )
							(-0.13271387  0.01465886 -0.078     )
							(-0.12934868  0.01440034 -0.078     )
							(-0.12598678  0.0141358  -0.078     )
							(-0.12262787  0.01386551 -0.078     )
							(-0.11927156  0.01358971 -0.078     )
							(-0.1159174  0.0133086 -0.078    )
							(-0.11256488  0.01302238 -0.078     )
							(-0.10921344  0.0127312  -0.078     )
							(-0.10586244  0.01243516 -0.078     )
							(-0.10251118  0.01213435 -0.078     )
							(-0.09915892  0.01182882 -0.078     )
							(-0.09580485  0.01151857 -0.078     )
							(-0.09244809  0.01120357 -0.078     )
							(-0.08908771  0.01088374 -0.078     )
							(-0.08572272  0.01055896 -0.078     )
							(-0.0823521   0.01022907 -0.078     )
							(-0.07897472  0.00989386 -0.078     )
							(-0.07558944  0.00955305 -0.078     )
							(-0.07219503  0.00920634 -0.078     )
							(-0.06879023  0.00885337 -0.078     )
							(-0.06537371  0.0084937  -0.078     )
							(-0.06194407  0.00812686 -0.078     )
							(-0.05849988  0.0077523  -0.078     )
							(-0.05503963  0.00736944 -0.078     )
							(-0.05156175  0.00697759 -0.078     )
							(-0.04806463  0.00657602 -0.078     )
							(-0.04454658  0.00616393 -0.078     )
							(-0.04100587  0.00574045 -0.078     )
							(-0.03744068  0.00530463 -0.078     )
							(-0.03384916  0.00485543 -0.078     )
							(-0.03022936  0.00439176 -0.078     )

						)
		spline 4 36 (
							(-0.29989847 -0.0009712  -0.078     )
							(-0.29959982 -0.00191558 -0.078     )
							(-0.29911276 -0.00283278 -0.078     )
							(-0.29844571 -0.00372249 -0.078     )
							(-0.29760688 -0.00458446 -0.078     )
							(-0.2966042  -0.00541848 -0.078     )
							(-0.29544535 -0.00622439 -0.078     )
							(-0.29413777 -0.00700207 -0.078     )
							(-0.29268869 -0.00775145 -0.078     )
							(-0.29110507 -0.00847248 -0.078     )
							(-0.28939366 -0.00916518 -0.078     )
							(-0.28756098 -0.00982959 -0.078     )
							(-0.28561334 -0.01046579 -0.078     )
							(-0.28355682 -0.01107389 -0.078     )
							(-0.28139731 -0.01165404 -0.078     )
							(-0.27914048 -0.01220642 -0.078     )
							(-0.27679179 -0.01273123 -0.078     )
							(-0.27435652 -0.01322872 -0.078     )
							(-0.27183975 -0.01369915 -0.078     )
							(-0.26924637 -0.01414281 -0.078     )
							(-0.26658108 -0.01456001 -0.078     )
							(-0.2638484 -0.0149511 -0.078    )
							(-0.26105269 -0.01531642 -0.078     )
							(-0.2581981  -0.01565637 -0.078     )
							(-0.25528864 -0.01597135 -0.078     )
							(-0.25232816 -0.01626176 -0.078     )
							(-0.24932031 -0.01652806 -0.078     )
							(-0.24626862 -0.01677068 -0.078     )
							(-0.24317645 -0.0169901  -0.078     )
							(-0.24004701 -0.01718679 -0.078     )
							(-0.23688335 -0.01736126 -0.078     )
							(-0.2336884  -0.01751399 -0.078     )
							(-0.23046492 -0.01764552 -0.078     )
							(-0.22721557 -0.01775635 -0.078     )
							(-0.22394284 -0.01784702 -0.078     )
							(-0.22064911 -0.01791807 -0.078     )
							(-0.21733662 -0.01797005 -0.078     )
							(-0.21400749 -0.0180035  -0.078     )
							(-0.21066373 -0.01801897 -0.078     )
							(-0.2073072  -0.01801702 -0.078     )
							(-0.20393968 -0.01799822 -0.078     )
							(-0.20056281 -0.01796311 -0.078     )
							(-0.19717814 -0.01791226 -0.078     )
							(-0.1937871  -0.01784622 -0.078     )
							(-0.19039102 -0.01776555 -0.078     )
							(-0.18699112 -0.0176708  -0.078     )
							(-0.18358853 -0.01756251 -0.078     )
							(-0.18018428 -0.01744122 -0.078     )
							(-0.1767793  -0.01730748 -0.078     )
							(-0.17337443 -0.0171618  -0.078     )
							(-0.16997042 -0.0170047  -0.078     )
							(-0.16656795 -0.0168367  -0.078     )
							(-0.16316757 -0.01665828 -0.078     )
							(-0.15976979 -0.01646993 -0.078     )
							(-0.15637502 -0.01627213 -0.078     )
							(-0.15298358 -0.01606532 -0.078     )
							(-0.14959573 -0.01584995 -0.078     )
							(-0.14621165 -0.01562645 -0.078     )
							(-0.14283143 -0.01539521 -0.078     )
							(-0.1394551  -0.01515663 -0.078     )
							(-0.13608262 -0.01491106 -0.078     )
							(-0.13271387 -0.01465886 -0.078     )
							(-0.12934868 -0.01440034 -0.078     )
							(-0.12598678 -0.0141358  -0.078     )
							(-0.12262787 -0.01386551 -0.078     )
							(-0.11927156 -0.01358971 -0.078     )
							(-0.1159174 -0.0133086 -0.078    )
							(-0.11256488 -0.01302238 -0.078     )
							(-0.10921344 -0.0127312  -0.078     )
							(-0.10586244 -0.01243516 -0.078     )
							(-0.10251118 -0.01213435 -0.078     )
							(-0.09915892 -0.01182882 -0.078     )
							(-0.09580485 -0.01151857 -0.078     )
							(-0.09244809 -0.01120357 -0.078     )
							(-0.08908771 -0.01088374 -0.078     )
							(-0.08572272 -0.01055896 -0.078     )
							(-0.0823521  -0.01022907 -0.078     )
							(-0.07897472 -0.00989386 -0.078     )
							(-0.07558944 -0.00955305 -0.078     )
							(-0.07219503 -0.00920634 -0.078     )
							(-0.06879023 -0.00885337 -0.078     )
							(-0.06537371 -0.0084937  -0.078     )
							(-0.06194407 -0.00812686 -0.078     )
							(-0.05849988 -0.0077523  -0.078     )
							(-0.05503963 -0.00736944 -0.078     )
							(-0.05156175 -0.00697759 -0.078     )
							(-0.04806463 -0.00657602 -0.078     )
							(-0.04454658 -0.00616393 -0.078     )
							(-0.04100587 -0.00574045 -0.078     )
							(-0.03744068 -0.00530463 -0.078     )
							(-0.03384916 -0.00485543 -0.078     )
							(-0.03022936 -0.00439176 -0.078     )

						)
		spline 5 29 (
							(-0.29989847  0.0009712   0.078     )
							(-0.29959982  0.00191558  0.078     )
							(-0.29911276  0.00283278  0.078     )
							(-0.29844571  0.00372249  0.078     )
							(-0.29760688  0.00458446  0.078     )
							(-0.2966042   0.00541848  0.078     )
							(-0.29544535  0.00622439  0.078     )
							(-0.29413777  0.00700207  0.078     )
							(-0.29268869  0.00775145  0.078     )
							(-0.29110507  0.00847248  0.078     )
							(-0.28939366  0.00916518  0.078     )
							(-0.28756098  0.00982959  0.078     )
							(-0.28561334  0.01046579  0.078     )
							(-0.28355682  0.01107389  0.078     )
							(-0.28139731  0.01165404  0.078     )
							(-0.27914048  0.01220642  0.078     )
							(-0.27679179  0.01273123  0.078     )
							(-0.27435652  0.01322872  0.078     )
							(-0.27183975  0.01369915  0.078     )
							(-0.26924637  0.01414281  0.078     )
							(-0.26658108  0.01456001  0.078     )
							(-0.2638484  0.0149511  0.078    )
							(-0.26105269  0.01531642  0.078     )
							(-0.2581981   0.01565637  0.078     )
							(-0.25528864  0.01597135  0.078     )
							(-0.25232816  0.01626176  0.078     )
							(-0.24932031  0.01652806  0.078     )
							(-0.24626862  0.01677068  0.078     )
							(-0.24317645  0.0169901   0.078     )
							(-0.24004701  0.01718679  0.078     )
							(-0.23688335  0.01736126  0.078     )
							(-0.2336884   0.01751399  0.078     )
							(-0.23046492  0.01764552  0.078     )
							(-0.22721557  0.01775635  0.078     )
							(-0.22394284  0.01784702  0.078     )
							(-0.22064911  0.01791807  0.078     )
							(-0.21733662  0.01797005  0.078     )
							(-0.21400749  0.0180035   0.078     )
							(-0.21066373  0.01801897  0.078     )
							(-0.2073072   0.01801702  0.078     )
							(-0.20393968  0.01799822  0.078     )
							(-0.20056281  0.01796311  0.078     )
							(-0.19717814  0.01791226  0.078     )
							(-0.1937871   0.01784622  0.078     )
							(-0.19039102  0.01776555  0.078     )
							(-0.18699112  0.0176708   0.078     )
							(-0.18358853  0.01756251  0.078     )
							(-0.18018428  0.01744122  0.078     )
							(-0.1767793   0.01730748  0.078     )
							(-0.17337443  0.0171618   0.078     )
							(-0.16997042  0.0170047   0.078     )
							(-0.16656795  0.0168367   0.078     )
							(-0.16316757  0.01665828  0.078     )
							(-0.15976979  0.01646993  0.078     )
							(-0.15637502  0.01627213  0.078     )
							(-0.15298358  0.01606532  0.078     )
							(-0.14959573  0.01584995  0.078     )
							(-0.14621165  0.01562645  0.078     )
							(-0.14283143  0.01539521  0.078     )
							(-0.1394551   0.01515663  0.078     )
							(-0.13608262  0.01491106  0.078     )
							(-0.13271387  0.01465886  0.078     )
							(-0.12934868  0.01440034  0.078     )
							(-0.12598678  0.0141358   0.078     )
							(-0.12262787  0.01386551  0.078     )
							(-0.11927156  0.01358971  0.078     )
							(-0.1159174  0.0133086  0.078    )
							(-0.11256488  0.01302238  0.078     )
							(-0.10921344  0.0127312   0.078     )
							(-0.10586244  0.01243516  0.078     )
							(-0.10251118  0.01213435  0.078     )
							(-0.09915892  0.01182882  0.078     )
							(-0.09580485  0.01151857  0.078     )
							(-0.09244809  0.01120357  0.078     )
							(-0.08908771  0.01088374  0.078     )
							(-0.08572272  0.01055896  0.078     )
							(-0.0823521   0.01022907  0.078     )
							(-0.07897472  0.00989386  0.078     )
							(-0.07558944  0.00955305  0.078     )
							(-0.07219503  0.00920634  0.078     )
							(-0.06879023  0.00885337  0.078     )
							(-0.06537371  0.0084937   0.078     )
							(-0.06194407  0.00812686  0.078     )
							(-0.05849988  0.0077523   0.078     )
							(-0.05503963  0.00736944  0.078     )
							(-0.05156175  0.00697759  0.078     )
							(-0.04806463  0.00657602  0.078     )
							(-0.04454658  0.00616393  0.078     )
							(-0.04100587  0.00574045  0.078     )
							(-0.03744068  0.00530463  0.078     )
							(-0.03384916  0.00485543  0.078     )
							(-0.03022936  0.00439176  0.078     )

						)
		spline 5 37 (
							(-0.29989847 -0.0009712   0.078     )
							(-0.29959982 -0.00191558  0.078     )
							(-0.29911276 -0.00283278  0.078     )
							(-0.29844571 -0.00372249  0.078     )
							(-0.29760688 -0.00458446  0.078     )
							(-0.2966042  -0.00541848  0.078     )
							(-0.29544535 -0.00622439  0.078     )
							(-0.29413777 -0.00700207  0.078     )
							(-0.29268869 -0.00775145  0.078     )
							(-0.29110507 -0.00847248  0.078     )
							(-0.28939366 -0.00916518  0.078     )
							(-0.28756098 -0.00982959  0.078     )
							(-0.28561334 -0.01046579  0.078     )
							(-0.28355682 -0.01107389  0.078     )
							(-0.28139731 -0.01165404  0.078     )
							(-0.27914048 -0.01220642  0.078     )
							(-0.27679179 -0.01273123  0.078     )
							(-0.27435652 -0.01322872  0.078     )
							(-0.27183975 -0.01369915  0.078     )
							(-0.26924637 -0.01414281  0.078     )
							(-0.26658108 -0.01456001  0.078     )
							(-0.2638484 -0.0149511  0.078    )
							(-0.26105269 -0.01531642  0.078     )
							(-0.2581981  -0.01565637  0.078     )
							(-0.25528864 -0.01597135  0.078     )
							(-0.25232816 -0.01626176  0.078     )
							(-0.24932031 -0.01652806  0.078     )
							(-0.24626862 -0.01677068  0.078     )
							(-0.24317645 -0.0169901   0.078     )
							(-0.24004701 -0.01718679  0.078     )
							(-0.23688335 -0.01736126  0.078     )
							(-0.2336884  -0.01751399  0.078     )
							(-0.23046492 -0.01764552  0.078     )
							(-0.22721557 -0.01775635  0.078     )
							(-0.22394284 -0.01784702  0.078     )
							(-0.22064911 -0.01791807  0.078     )
							(-0.21733662 -0.01797005  0.078     )
							(-0.21400749 -0.0180035   0.078     )
							(-0.21066373 -0.01801897  0.078     )
							(-0.2073072  -0.01801702  0.078     )
							(-0.20393968 -0.01799822  0.078     )
							(-0.20056281 -0.01796311  0.078     )
							(-0.19717814 -0.01791226  0.078     )
							(-0.1937871  -0.01784622  0.078     )
							(-0.19039102 -0.01776555  0.078     )
							(-0.18699112 -0.0176708   0.078     )
							(-0.18358853 -0.01756251  0.078     )
							(-0.18018428 -0.01744122  0.078     )
							(-0.1767793  -0.01730748  0.078     )
							(-0.17337443 -0.0171618   0.078     )
							(-0.16997042 -0.0170047   0.078     )
							(-0.16656795 -0.0168367   0.078     )
							(-0.16316757 -0.01665828  0.078     )
							(-0.15976979 -0.01646993  0.078     )
							(-0.15637502 -0.01627213  0.078     )
							(-0.15298358 -0.01606532  0.078     )
							(-0.14959573 -0.01584995  0.078     )
							(-0.14621165 -0.01562645  0.078     )
							(-0.14283143 -0.01539521  0.078     )
							(-0.1394551  -0.01515663  0.078     )
							(-0.13608262 -0.01491106  0.078     )
							(-0.13271387 -0.01465886  0.078     )
							(-0.12934868 -0.01440034  0.078     )
							(-0.12598678 -0.0141358   0.078     )
							(-0.12262787 -0.01386551  0.078     )
							(-0.11927156 -0.01358971  0.078     )
							(-0.1159174 -0.0133086  0.078    )
							(-0.11256488 -0.01302238  0.078     )
							(-0.10921344 -0.0127312   0.078     )
							(-0.10586244 -0.01243516  0.078     )
							(-0.10251118 -0.01213435  0.078     )
							(-0.09915892 -0.01182882  0.078     )
							(-0.09580485 -0.01151857  0.078     )
							(-0.09244809 -0.01120357  0.078     )
							(-0.08908771 -0.01088374  0.078     )
							(-0.08572272 -0.01055896  0.078     )
							(-0.0823521  -0.01022907  0.078     )
							(-0.07897472 -0.00989386  0.078     )
							(-0.07558944 -0.00955305  0.078     )
							(-0.07219503 -0.00920634  0.078     )
							(-0.06879023 -0.00885337  0.078     )
							(-0.06537371 -0.0084937   0.078     )
							(-0.06194407 -0.00812686  0.078     )
							(-0.05849988 -0.0077523   0.078     )
							(-0.05503963 -0.00736944  0.078     )
							(-0.05156175 -0.00697759  0.078     )
							(-0.04806463 -0.00657602  0.078     )
							(-0.04454658 -0.00616393  0.078     )
							(-0.04100587 -0.00574045  0.078     )
							(-0.03744068 -0.00530463  0.078     )
							(-0.03384916 -0.00485543  0.078     )
							(-0.03022936 -0.00439176  0.078     )

						)
);

boundary
(
    inOut
    {
        type patch;
        faces
        (
            ( 8  0  1  9)
            ( 0  2  3  1)
            (14 10 11 15)
            ( 2 14 15  3)
            (10  8  9 11)
        );
    }

    coandaUpper
    {
        type patch;
        faces
        (
            (24 22 23 25)
        );
    }

    coandaLower
    {
        type patch;
        faces
        (
            (30 32 33 31)
        );
    }

    surface
    {
        type wall;
        faces
        (
            ( 4 28 29  5)
            ( 4 36 37  5)
            (28 26 27 29)
            (26 24 25 27)
            (22 30 31 23)
            (32 34 35 33)
            (34 36 37 35)
        );
    }


);
