/*--------------------------------*- C++ -*----------------------------------*\
  =========                 |
  \\      /  F ield         | OpenFOAM: The Open Source CFD Toolbox
   \\    /   O peration     | Website:  https://openfoam.org
    \\  /    A nd           | Version:  8
     \\/     M anipulation  |
\*---------------------------------------------------------------------------*/
FoamFile
{
    version     2.0;
    format      ascii;
    class       volVectorField;
    location    "0";
    object      U;
}
// * * * * * * * * * * * * * * * * * * * * * * * * * * * * * * * * * * * * * //

dimensions      [0 1 -1 0 0 0 0];

internalField uniform (5 0 0);

boundaryField
{
    down
    {
        type            symmetryPlane;
    }
    right
    {
        type            zeroGradient;
    }
    up
    {
        type            symmetryPlane;
    }
    left
    {
        type            uniformFixedValue;
        uniformValue    constant (5 0 0);
        value           uniform (5 0 0);
    }
    cylinder
    {
        type            noSlip;
    }

    // cylinderInner
    // {
    //     type            noSlip;
    // }

    slot
    {
        type            flowRateInletVelocity;
        massFlowRate    uniform .02;
        rho             rho;
        rhoInlet        1.0;
    }

    defaultFaces
    {
        type            empty;
    }
}


// ************************************************************************* //
