/*--------------------------------*- C++ -*----------------------------------*\
  =========                 |
  \\      /  F ield         | OpenFOAM: The Open Source CFD Toolbox
   \\    /   O peration     | Website:  https://openfoam.org
    \\  /    A nd           | Version:  8
     \\/     M anipulation  |
\*---------------------------------------------------------------------------*/
FoamFile
{
    version     2.0;
    format      ascii;
    class       polyBoundaryMesh;
    location    "2e-05/polyMesh";
    object      boundary;
}
// * * * * * * * * * * * * * * * * * * * * * * * * * * * * * * * * * * * * * //

7
(
    down
    {
        type            symmetryPlane;
        inGroups        List<word> 1(symmetryPlane);
        nFaces          400;
        startFace       1734668;
    }
    right
    {
        type            patch;
        nFaces          200;
        startFace       1735068;
    }
    up
    {
        type            symmetryPlane;
        inGroups        List<word> 1(symmetryPlane);
        nFaces          400;
        startFace       1735268;
    }
    left
    {
        type            patch;
        nFaces          200;
        startFace       1735668;
    }
    front
    {
        type            empty;
        inGroups        List<word> 1(empty);
        nFaces          106492;
        startFace       1735868;
    }
    back
    {
        type            empty;
        inGroups        List<word> 1(empty);
        nFaces          106495;
        startFace       1842360;
    }
    wing
    {
        type            wall;
        inGroups        List<word> 1(wall);
        nFaces          24096;
        startFace       1948855;
    }
)

// ************************************************************************* //
