/*--------------------------------*- C++ -*----------------------------------*\
  =========                 |
  \\      /  F ield         | OpenFOAM: The Open Source CFD Toolbox
   \\    /   O peration     | Website:  https://openfoam.org
    \\  /    A nd           | Version:  9
     \\/     M anipulation  |
\*---------------------------------------------------------------------------*/
FoamFile
{
    format      ascii;
    class       polyBoundaryMesh;
    location    "constant/polyMesh";
    object      boundary;
}
// * * * * * * * * * * * * * * * * * * * * * * * * * * * * * * * * * * * * * //

10
(
    down
    {
        type            patch;
        nFaces          80;
        startFace       21343;
    }
    right
    {
        type            patch;
        nFaces          121;
        startFace       21423;
    }
    up
    {
        type            patch;
        nFaces          0;
        startFace       21544;
    }
    meanFlow
    {
        type            patch;
        nFaces          0;
        startFace       21544;
    }
    surface
    {
        type            wall;
        inGroups        List<word> 1(wall);
        nFaces          78;
        startFace       21544;
    }
    surfaceInner
    {
        type            wall;
        inGroups        List<word> 1(wall);
        nFaces          0;
        startFace       21622;
    }
    coandaInlet
    {
        type            patch;
        nFaces          0;
        startFace       21622;
    }
    defaultFaces
    {
        type            empty;
        inGroups        List<word> 1(empty);
        nFaces          21604;
        startFace       21622;
    }
    procBoundary2to1
    {
        type            processor;
        inGroups        List<word> 1(processor);
        nFaces          106;
        startFace       43226;
        matchTolerance  0.0001;
        myProcNo        2;
        neighbProcNo    1;
    }
    procBoundary2to5
    {
        type            processor;
        inGroups        List<word> 1(processor);
        nFaces          137;
        startFace       43332;
        matchTolerance  0.0001;
        myProcNo        2;
        neighbProcNo    5;
    }
)

// ************************************************************************* //
