/*--------------------------------*- C++ -*----------------------------------*\
  =========                 |
  \\      /  F ield         | OpenFOAM: The Open Source CFD Toolbox
   \\    /   O peration     | Website:  https://openfoam.org
    \\  /    A nd           | Version:  8
     \\/     M anipulation  |
\*---------------------------------------------------------------------------*/
FoamFile
{
    version     2.0;
    format      ascii;
    class       polyBoundaryMesh;
    location    "0.00936/polyMesh";
    object      boundary;
}
// * * * * * * * * * * * * * * * * * * * * * * * * * * * * * * * * * * * * * //

7
(
    down
    {
        type            symmetryPlane;
        inGroups        List<word> 1(symmetryPlane);
        nFaces          400;
        startFace       2636036;
    }
    right
    {
        type            patch;
        nFaces          200;
        startFace       2636436;
    }
    up
    {
        type            symmetryPlane;
        inGroups        List<word> 1(symmetryPlane);
        nFaces          400;
        startFace       2636636;
    }
    left
    {
        type            patch;
        nFaces          200;
        startFace       2637036;
    }
    front
    {
        type            empty;
        inGroups        List<word> 1(empty);
        nFaces          109372;
        startFace       2637236;
    }
    back
    {
        type            empty;
        inGroups        List<word> 1(empty);
        nFaces          109372;
        startFace       2746608;
    }
    wing
    {
        type            wall;
        inGroups        List<word> 1(wall);
        nFaces          36608;
        startFace       2855980;
    }
)

// ************************************************************************* //
