/*--------------------------------*- C++ -*----------------------------------*\
  =========                 |
  \\      /  F ield         | OpenFOAM: The Open Source CFD Toolbox
   \\    /   O peration     | Website:  https://openfoam.org
    \\  /    A nd           | Version:  8
     \\/     M anipulation  |
\*---------------------------------------------------------------------------*/
FoamFile
{
    version     2.0;
    format      ascii;
    class       polyBoundaryMesh;
    location    "constant/polyMesh";
    object      boundary;
}
// * * * * * * * * * * * * * * * * * * * * * * * * * * * * * * * * * * * * * //

7
(
    down
    {
        type            symmetryPlane;
        inGroups        List<word> 1(symmetryPlane);
        nFaces          400;
        startFace       223140;
    }
    right
    {
        type            patch;
        nFaces          200;
        startFace       223540;
    }
    up
    {
        type            symmetryPlane;
        inGroups        List<word> 1(symmetryPlane);
        nFaces          400;
        startFace       223740;
    }
    left
    {
        type            patch;
        nFaces          200;
        startFace       224140;
    }
    front
    {
        type            empty;
        inGroups        List<word> 1(empty);
        nFaces          111680;
        startFace       224340;
    }
    back
    {
        type            empty;
        inGroups        List<word> 1(empty);
        nFaces          111680;
        startFace       336020;
    }
    wing
    {
        type            wall;
        inGroups        List<word> 1(wall);
        nFaces          315;
        startFace       447700;
    }
)

// ************************************************************************* //
