/*--------------------------------*- C++ -*----------------------------------*\
  =========                 |
  \\      /  F ield         | OpenFOAM: The Open Source CFD Toolbox
   \\    /   O peration     | Website:  https://openfoam.org
    \\  /    A nd           | Version:  8
     \\/     M anipulation  |
\*---------------------------------------------------------------------------*/
FoamFile
{
    version     2.0;
    format      ascii;
    class       volScalarField;
    object      p;
}
// * * * * * * * * * * * * * * * * * * * * * * * * * * * * * * * * * * * * * //

dimensions      [1 -1 -2 0 0 0 0];

internalField   uniform 100000;

boundaryField
{
    down
    {
        type            slip;
    }

    right
    {
        type            fixedValue;
        value           uniform 100000;
    }

    up
    {
        type            slip;
    }

    meanFlow
    {
        type            fixedValue;
        value           uniform 100000;
    }

    surface
    {
        type            zeroGradient;
    }
    coandaInlet
    {
        type            totalPressure;
        value           uniform 170000;
        p0              uniform 170000;
    }

    defaultFaces
    {
        type            empty;
    }
}


// ************************************************************************* //
