/*---------------------------------*- C++ -*-----------------------------------*/
//    //////////////      ///////////////
//    //////////////      //////////////
//         ////           ////             /////       ////  //  /// //// ////
//         ////     ////  ///////////   ///    ///  ///    ///   ////  ///  ///
//  ////   ////           ///////////   ///    ///  ///    ///   ///   ///  ///
//   //// ////            ////          ///    ///  ///    ///   ///   ///  ///
//     /////              ////            /////       ///// ///  ///   ///  ///
/*---------------------------------*- C++ -*-----------------------------------*/

FoamFile
{
		version			2.0;
		format			ascii;
		class				dictionary;
		object			blockMeshDict;
}

// ***************************************************************************** //

scale				1;

vertices
(
		(-1.0 0.0 -0.5)	//	0
		(-1.0 0.0 0.5)	//	1
		(0.0 0.0 -0.5)	//	2
		(0.0 0.0 0.5)	//	3
		(8.0 25.0 -0.5)	//	4
		(8.0 25.0 0.5)	//	5
		(-26.248809496813376 0.0 -0.5)	//	6
		(-26.248809496813376 0.0 0.5)	//	7
		(8.0 -25.0 -0.5)	//	8
		(8.0 -25.0 0.5)	//	9
		(25.0 -25.0 -0.5)	//	10
		(25.0 -25.0 0.5)	//	11
		(25.0 0.0 -0.5)	//	12
		(25.0 0.0 0.5)	//	13
		(25.0 25.0 -0.5)	//	14
		(25.0 25.0 0.5)	//	15
		(0.0 0.0 -0.5)	//	16
		(0.0 0.0 0.5)	//	17
);

blocks
(
		hex ( 0  2  4  6  1  3  5  7 ) (100 70 1) edgeGrading (((.5 .5 10) (.5 .5 0.1))   0.1   0.1   ((.5 .5 10) (.5 .5 0.1)) 8000 800 800 8000 1 1 1 1) // 0
		hex ( 6  8 16  0  7  9 17  1 ) (100 70 1) edgeGrading (0.1   ((.5 .5 10) (.5 .5 0.1))   ((.5 .5 10) (.5 .5 0.1))   0.1 0.000125 0.00125 0.00125 0.000125 1 1 1 1) // 1
		hex ( 8 10 12 16  9 11 13 17 ) (80 70 1) edgeGrading ( 1 1200 1200 1 0.00125 0.01 0.01 0.00125 1 1 1 1 ) // 2
		hex ( 2 12 14  4  3 13 15  5 ) (80 70 1) edgeGrading ( 1200 1 1 1200 800 100 100 800 1 1 1 1 ) // 3
);

edges
(
		arc  4  6  (-15.475941393425684 21.20130274269139 -0.5)
		arc  5  7  (-15.475941393425684 21.20130274269139 0.5)
		arc  6  8  (-15.475941393425684 -21.20130274269139 -0.5)
		arc  7  9  (-15.475941393425684 -21.20130274269139 0.5)
		spline 0  2 (
							(-0.99965677  0.00196539 -0.5       )
							(-0.99865602  0.00381518 -0.5       )
							(-0.99703968  0.00555526 -0.5       )
							(-0.99484773  0.00719127 -0.5       )
							(-0.99211828  0.00872868 -0.5       )
							(-0.98888758  0.01017276 -0.5       )
							(-0.9851901   0.01152854 -0.5       )
							(-0.98105858  0.01280089 -0.5       )
							(-0.97652405  0.01399447 -0.5       )
							(-0.9716159   0.01511375 -0.5       )
							(-0.96636191  0.016163   -0.5       )
							(-0.96078831  0.01714631 -0.5       )
							(-0.95491982  0.01806759 -0.5       )
							(-0.94877969  0.01893054 -0.5       )
							(-0.94238976  0.01973872 -0.5       )
							(-0.93577048  0.02049547 -0.5       )
							(-0.92894097  0.02120399 -0.5       )
							(-0.92191906  0.02186729 -0.5       )
							(-0.91472132  0.02248822 -0.5       )
							(-0.90736313  0.02306945 -0.5       )
							(-0.89985868  0.02361351 -0.5       )
							(-0.89222106  0.02412274 -0.5       )
							(-0.88446226  0.02459937 -0.5       )
							(-0.87659321  0.02504543 -0.5       )
							(-0.86862387  0.02546282 -0.5       )
							(-0.86056319  0.02585332 -0.5       )
							(-0.85241921  0.02621852 -0.5       )
							(-0.84419908  0.02655991 -0.5       )
							(-0.83590909  0.02687883 -0.5       )
							(-0.8275547   0.02717649 -0.5       )
							(-0.8191406   0.02745397 -0.5       )
							(-0.81067072  0.02771224 -0.5       )
							(-0.80214828  0.02795214 -0.5       )
							(-0.79357584  0.02817441 -0.5       )
							(-0.78495528  0.02837965 -0.5       )
							(-0.7762879   0.02856837 -0.5       )
							(-0.7675744  0.028741  -0.5      )
							(-0.75881493  0.02889784 -0.5       )
							(-0.75000916  0.02903911 -0.5       )
							(-0.74115624  0.02916493 -0.5       )
							(-0.73225488  0.02927536 -0.5       )
							(-0.72330337  0.02937036 -0.5       )
							(-0.7142996   0.02944981 -0.5       )
							(-0.70524111  0.02951354 -0.5       )
							(-0.69612509  0.0295613  -0.5       )
							(-0.68694843  0.02959279 -0.5       )
							(-0.67770775  0.02960764 -0.5       )
							(-0.66839941  0.02960544 -0.5       )
							(-0.65901953  0.02958572 -0.5       )
							(-0.64956407  0.029548   -0.5       )
							(-0.64002877  0.02949173 -0.5       )
							(-0.63040926  0.02941635 -0.5       )
							(-0.62070103  0.02932127 -0.5       )
							(-0.61089947  0.02920588 -0.5       )
							(-0.60099989  0.02906956 -0.5       )
							(-0.59099756  0.02891168 -0.5       )
							(-0.58088772  0.0287316  -0.5       )
							(-0.57066557  0.02852869 -0.5       )
							(-0.56032637  0.02830233 -0.5       )
							(-0.54986539  0.02805191 -0.5       )
							(-0.53927794  0.02777685 -0.5       )
							(-0.52855944  0.02747659 -0.5       )
							(-0.51770536  0.02715059 -0.5       )
							(-0.50671133  0.02679836 -0.5       )
							(-0.49557307  0.02641947 -0.5       )
							(-0.48428648  0.02601352 -0.5       )
							(-0.4728476   0.02558017 -0.5       )
							(-0.46125267  0.02511914 -0.5       )
							(-0.44949812  0.02463024 -0.5       )
							(-0.43758061  0.02411333 -0.5       )
							(-0.42549701  0.02356838 -0.5       )
							(-0.41324444  0.02299543 -0.5       )
							(-0.4008203   0.02239461 -0.5       )
							(-0.38822223  0.02176619 -0.5       )
							(-0.37544818  0.0211105  -0.5       )
							(-0.36249639  0.02042803 -0.5       )
							(-0.34936541  0.01971937 -0.5       )
							(-0.33605412  0.01898524 -0.5       )
							(-0.32256173  0.01822651 -0.5       )
							(-0.30888778  0.01744419 -0.5       )
							(-0.29503219  0.01663944 -0.5       )
							(-0.28099522  0.01581359 -0.5       )
							(-0.26677752  0.01496811 -0.5       )
							(-0.25238012  0.01410468 -0.5       )
							(-0.23780442  0.01322515 -0.5       )
							(-0.22305224  0.01233153 -0.5       )
							(-0.20812579  0.01142607 -0.5       )
							(-0.1930277  0.0105112 -0.5      )
							(-0.17776101  0.00958958 -0.5       )
							(-0.16232918  0.00866406 -0.5       )
							(-0.14673611  0.00773775 -0.5       )
							(-0.13098611  0.00681399 -0.5       )
							(-0.11508394  0.00589635 -0.5       )
							(-0.09903479  0.00498866 -0.5       )
							(-0.0828443   0.00409502 -0.5       )
							(-0.06651854  0.00321978 -0.5       )
							(-0.05006404  0.00236759 -0.5       )
							(-0.03348776  0.00154337 -0.5       )
							(-0.01679713  0.00075233 -0.5       )

						)
		spline 1  3 (
							(-0.99965677  0.00196539  0.5       )
							(-0.99865602  0.00381518  0.5       )
							(-0.99703968  0.00555526  0.5       )
							(-0.99484773  0.00719127  0.5       )
							(-0.99211828  0.00872868  0.5       )
							(-0.98888758  0.01017276  0.5       )
							(-0.9851901   0.01152854  0.5       )
							(-0.98105858  0.01280089  0.5       )
							(-0.97652405  0.01399447  0.5       )
							(-0.9716159   0.01511375  0.5       )
							(-0.96636191  0.016163    0.5       )
							(-0.96078831  0.01714631  0.5       )
							(-0.95491982  0.01806759  0.5       )
							(-0.94877969  0.01893054  0.5       )
							(-0.94238976  0.01973872  0.5       )
							(-0.93577048  0.02049547  0.5       )
							(-0.92894097  0.02120399  0.5       )
							(-0.92191906  0.02186729  0.5       )
							(-0.91472132  0.02248822  0.5       )
							(-0.90736313  0.02306945  0.5       )
							(-0.89985868  0.02361351  0.5       )
							(-0.89222106  0.02412274  0.5       )
							(-0.88446226  0.02459937  0.5       )
							(-0.87659321  0.02504543  0.5       )
							(-0.86862387  0.02546282  0.5       )
							(-0.86056319  0.02585332  0.5       )
							(-0.85241921  0.02621852  0.5       )
							(-0.84419908  0.02655991  0.5       )
							(-0.83590909  0.02687883  0.5       )
							(-0.8275547   0.02717649  0.5       )
							(-0.8191406   0.02745397  0.5       )
							(-0.81067072  0.02771224  0.5       )
							(-0.80214828  0.02795214  0.5       )
							(-0.79357584  0.02817441  0.5       )
							(-0.78495528  0.02837965  0.5       )
							(-0.7762879   0.02856837  0.5       )
							(-0.7675744  0.028741   0.5      )
							(-0.75881493  0.02889784  0.5       )
							(-0.75000916  0.02903911  0.5       )
							(-0.74115624  0.02916493  0.5       )
							(-0.73225488  0.02927536  0.5       )
							(-0.72330337  0.02937036  0.5       )
							(-0.7142996   0.02944981  0.5       )
							(-0.70524111  0.02951354  0.5       )
							(-0.69612509  0.0295613   0.5       )
							(-0.68694843  0.02959279  0.5       )
							(-0.67770775  0.02960764  0.5       )
							(-0.66839941  0.02960544  0.5       )
							(-0.65901953  0.02958572  0.5       )
							(-0.64956407  0.029548    0.5       )
							(-0.64002877  0.02949173  0.5       )
							(-0.63040926  0.02941635  0.5       )
							(-0.62070103  0.02932127  0.5       )
							(-0.61089947  0.02920588  0.5       )
							(-0.60099989  0.02906956  0.5       )
							(-0.59099756  0.02891168  0.5       )
							(-0.58088772  0.0287316   0.5       )
							(-0.57066557  0.02852869  0.5       )
							(-0.56032637  0.02830233  0.5       )
							(-0.54986539  0.02805191  0.5       )
							(-0.53927794  0.02777685  0.5       )
							(-0.52855944  0.02747659  0.5       )
							(-0.51770536  0.02715059  0.5       )
							(-0.50671133  0.02679836  0.5       )
							(-0.49557307  0.02641947  0.5       )
							(-0.48428648  0.02601352  0.5       )
							(-0.4728476   0.02558017  0.5       )
							(-0.46125267  0.02511914  0.5       )
							(-0.44949812  0.02463024  0.5       )
							(-0.43758061  0.02411333  0.5       )
							(-0.42549701  0.02356838  0.5       )
							(-0.41324444  0.02299543  0.5       )
							(-0.4008203   0.02239461  0.5       )
							(-0.38822223  0.02176619  0.5       )
							(-0.37544818  0.0211105   0.5       )
							(-0.36249639  0.02042803  0.5       )
							(-0.34936541  0.01971937  0.5       )
							(-0.33605412  0.01898524  0.5       )
							(-0.32256173  0.01822651  0.5       )
							(-0.30888778  0.01744419  0.5       )
							(-0.29503219  0.01663944  0.5       )
							(-0.28099522  0.01581359  0.5       )
							(-0.26677752  0.01496811  0.5       )
							(-0.25238012  0.01410468  0.5       )
							(-0.23780442  0.01322515  0.5       )
							(-0.22305224  0.01233153  0.5       )
							(-0.20812579  0.01142607  0.5       )
							(-0.1930277  0.0105112  0.5      )
							(-0.17776101  0.00958958  0.5       )
							(-0.16232918  0.00866406  0.5       )
							(-0.14673611  0.00773775  0.5       )
							(-0.13098611  0.00681399  0.5       )
							(-0.11508394  0.00589635  0.5       )
							(-0.09903479  0.00498866  0.5       )
							(-0.0828443   0.00409502  0.5       )
							(-0.06651854  0.00321978  0.5       )
							(-0.05006404  0.00236759  0.5       )
							(-0.03348776  0.00154337  0.5       )
							(-0.01679713  0.00075233  0.5       )

						)
		spline 0 16 (
							(-0.99965677 -0.00196539 -0.5       )
							(-0.99865602 -0.00381518 -0.5       )
							(-0.99703968 -0.00555526 -0.5       )
							(-0.99484773 -0.00719127 -0.5       )
							(-0.99211828 -0.00872868 -0.5       )
							(-0.98888758 -0.01017276 -0.5       )
							(-0.9851901  -0.01152854 -0.5       )
							(-0.98105858 -0.01280089 -0.5       )
							(-0.97652405 -0.01399447 -0.5       )
							(-0.9716159  -0.01511375 -0.5       )
							(-0.96636191 -0.016163   -0.5       )
							(-0.96078831 -0.01714631 -0.5       )
							(-0.95491982 -0.01806759 -0.5       )
							(-0.94877969 -0.01893054 -0.5       )
							(-0.94238976 -0.01973872 -0.5       )
							(-0.93577048 -0.02049547 -0.5       )
							(-0.92894097 -0.02120399 -0.5       )
							(-0.92191906 -0.02186729 -0.5       )
							(-0.91472132 -0.02248822 -0.5       )
							(-0.90736313 -0.02306945 -0.5       )
							(-0.89985868 -0.02361351 -0.5       )
							(-0.89222106 -0.02412274 -0.5       )
							(-0.88446226 -0.02459937 -0.5       )
							(-0.87659321 -0.02504543 -0.5       )
							(-0.86862387 -0.02546282 -0.5       )
							(-0.86056319 -0.02585332 -0.5       )
							(-0.85241921 -0.02621852 -0.5       )
							(-0.84419908 -0.02655991 -0.5       )
							(-0.83590909 -0.02687883 -0.5       )
							(-0.8275547  -0.02717649 -0.5       )
							(-0.8191406  -0.02745397 -0.5       )
							(-0.81067072 -0.02771224 -0.5       )
							(-0.80214828 -0.02795214 -0.5       )
							(-0.79357584 -0.02817441 -0.5       )
							(-0.78495528 -0.02837965 -0.5       )
							(-0.7762879  -0.02856837 -0.5       )
							(-0.7675744 -0.028741  -0.5      )
							(-0.75881493 -0.02889784 -0.5       )
							(-0.75000916 -0.02903911 -0.5       )
							(-0.74115624 -0.02916493 -0.5       )
							(-0.73225488 -0.02927536 -0.5       )
							(-0.72330337 -0.02937036 -0.5       )
							(-0.7142996  -0.02944981 -0.5       )
							(-0.70524111 -0.02951354 -0.5       )
							(-0.69612509 -0.0295613  -0.5       )
							(-0.68694843 -0.02959279 -0.5       )
							(-0.67770775 -0.02960764 -0.5       )
							(-0.66839941 -0.02960544 -0.5       )
							(-0.65901953 -0.02958572 -0.5       )
							(-0.64956407 -0.029548   -0.5       )
							(-0.64002877 -0.02949173 -0.5       )
							(-0.63040926 -0.02941635 -0.5       )
							(-0.62070103 -0.02932127 -0.5       )
							(-0.61089947 -0.02920588 -0.5       )
							(-0.60099989 -0.02906956 -0.5       )
							(-0.59099756 -0.02891168 -0.5       )
							(-0.58088772 -0.0287316  -0.5       )
							(-0.57066557 -0.02852869 -0.5       )
							(-0.56032637 -0.02830233 -0.5       )
							(-0.54986539 -0.02805191 -0.5       )
							(-0.53927794 -0.02777685 -0.5       )
							(-0.52855944 -0.02747659 -0.5       )
							(-0.51770536 -0.02715059 -0.5       )
							(-0.50671133 -0.02679836 -0.5       )
							(-0.49557307 -0.02641947 -0.5       )
							(-0.48428648 -0.02601352 -0.5       )
							(-0.4728476  -0.02558017 -0.5       )
							(-0.46125267 -0.02511914 -0.5       )
							(-0.44949812 -0.02463024 -0.5       )
							(-0.43758061 -0.02411333 -0.5       )
							(-0.42549701 -0.02356838 -0.5       )
							(-0.41324444 -0.02299543 -0.5       )
							(-0.4008203  -0.02239461 -0.5       )
							(-0.38822223 -0.02176619 -0.5       )
							(-0.37544818 -0.0211105  -0.5       )
							(-0.36249639 -0.02042803 -0.5       )
							(-0.34936541 -0.01971937 -0.5       )
							(-0.33605412 -0.01898524 -0.5       )
							(-0.32256173 -0.01822651 -0.5       )
							(-0.30888778 -0.01744419 -0.5       )
							(-0.29503219 -0.01663944 -0.5       )
							(-0.28099522 -0.01581359 -0.5       )
							(-0.26677752 -0.01496811 -0.5       )
							(-0.25238012 -0.01410468 -0.5       )
							(-0.23780442 -0.01322515 -0.5       )
							(-0.22305224 -0.01233153 -0.5       )
							(-0.20812579 -0.01142607 -0.5       )
							(-0.1930277 -0.0105112 -0.5      )
							(-0.17776101 -0.00958958 -0.5       )
							(-0.16232918 -0.00866406 -0.5       )
							(-0.14673611 -0.00773775 -0.5       )
							(-0.13098611 -0.00681399 -0.5       )
							(-0.11508394 -0.00589635 -0.5       )
							(-0.09903479 -0.00498866 -0.5       )
							(-0.0828443  -0.00409502 -0.5       )
							(-0.06651854 -0.00321978 -0.5       )
							(-0.05006404 -0.00236759 -0.5       )
							(-0.03348776 -0.00154337 -0.5       )
							(-0.01679713 -0.00075233 -0.5       )

						)
		spline 1 17 (
							(-0.99965677 -0.00196539  0.5       )
							(-0.99865602 -0.00381518  0.5       )
							(-0.99703968 -0.00555526  0.5       )
							(-0.99484773 -0.00719127  0.5       )
							(-0.99211828 -0.00872868  0.5       )
							(-0.98888758 -0.01017276  0.5       )
							(-0.9851901  -0.01152854  0.5       )
							(-0.98105858 -0.01280089  0.5       )
							(-0.97652405 -0.01399447  0.5       )
							(-0.9716159  -0.01511375  0.5       )
							(-0.96636191 -0.016163    0.5       )
							(-0.96078831 -0.01714631  0.5       )
							(-0.95491982 -0.01806759  0.5       )
							(-0.94877969 -0.01893054  0.5       )
							(-0.94238976 -0.01973872  0.5       )
							(-0.93577048 -0.02049547  0.5       )
							(-0.92894097 -0.02120399  0.5       )
							(-0.92191906 -0.02186729  0.5       )
							(-0.91472132 -0.02248822  0.5       )
							(-0.90736313 -0.02306945  0.5       )
							(-0.89985868 -0.02361351  0.5       )
							(-0.89222106 -0.02412274  0.5       )
							(-0.88446226 -0.02459937  0.5       )
							(-0.87659321 -0.02504543  0.5       )
							(-0.86862387 -0.02546282  0.5       )
							(-0.86056319 -0.02585332  0.5       )
							(-0.85241921 -0.02621852  0.5       )
							(-0.84419908 -0.02655991  0.5       )
							(-0.83590909 -0.02687883  0.5       )
							(-0.8275547  -0.02717649  0.5       )
							(-0.8191406  -0.02745397  0.5       )
							(-0.81067072 -0.02771224  0.5       )
							(-0.80214828 -0.02795214  0.5       )
							(-0.79357584 -0.02817441  0.5       )
							(-0.78495528 -0.02837965  0.5       )
							(-0.7762879  -0.02856837  0.5       )
							(-0.7675744 -0.028741   0.5      )
							(-0.75881493 -0.02889784  0.5       )
							(-0.75000916 -0.02903911  0.5       )
							(-0.74115624 -0.02916493  0.5       )
							(-0.73225488 -0.02927536  0.5       )
							(-0.72330337 -0.02937036  0.5       )
							(-0.7142996  -0.02944981  0.5       )
							(-0.70524111 -0.02951354  0.5       )
							(-0.69612509 -0.0295613   0.5       )
							(-0.68694843 -0.02959279  0.5       )
							(-0.67770775 -0.02960764  0.5       )
							(-0.66839941 -0.02960544  0.5       )
							(-0.65901953 -0.02958572  0.5       )
							(-0.64956407 -0.029548    0.5       )
							(-0.64002877 -0.02949173  0.5       )
							(-0.63040926 -0.02941635  0.5       )
							(-0.62070103 -0.02932127  0.5       )
							(-0.61089947 -0.02920588  0.5       )
							(-0.60099989 -0.02906956  0.5       )
							(-0.59099756 -0.02891168  0.5       )
							(-0.58088772 -0.0287316   0.5       )
							(-0.57066557 -0.02852869  0.5       )
							(-0.56032637 -0.02830233  0.5       )
							(-0.54986539 -0.02805191  0.5       )
							(-0.53927794 -0.02777685  0.5       )
							(-0.52855944 -0.02747659  0.5       )
							(-0.51770536 -0.02715059  0.5       )
							(-0.50671133 -0.02679836  0.5       )
							(-0.49557307 -0.02641947  0.5       )
							(-0.48428648 -0.02601352  0.5       )
							(-0.4728476  -0.02558017  0.5       )
							(-0.46125267 -0.02511914  0.5       )
							(-0.44949812 -0.02463024  0.5       )
							(-0.43758061 -0.02411333  0.5       )
							(-0.42549701 -0.02356838  0.5       )
							(-0.41324444 -0.02299543  0.5       )
							(-0.4008203  -0.02239461  0.5       )
							(-0.38822223 -0.02176619  0.5       )
							(-0.37544818 -0.0211105   0.5       )
							(-0.36249639 -0.02042803  0.5       )
							(-0.34936541 -0.01971937  0.5       )
							(-0.33605412 -0.01898524  0.5       )
							(-0.32256173 -0.01822651  0.5       )
							(-0.30888778 -0.01744419  0.5       )
							(-0.29503219 -0.01663944  0.5       )
							(-0.28099522 -0.01581359  0.5       )
							(-0.26677752 -0.01496811  0.5       )
							(-0.25238012 -0.01410468  0.5       )
							(-0.23780442 -0.01322515  0.5       )
							(-0.22305224 -0.01233153  0.5       )
							(-0.20812579 -0.01142607  0.5       )
							(-0.1930277 -0.0105112  0.5      )
							(-0.17776101 -0.00958958  0.5       )
							(-0.16232918 -0.00866406  0.5       )
							(-0.14673611 -0.00773775  0.5       )
							(-0.13098611 -0.00681399  0.5       )
							(-0.11508394 -0.00589635  0.5       )
							(-0.09903479 -0.00498866  0.5       )
							(-0.0828443  -0.00409502  0.5       )
							(-0.06651854 -0.00321978  0.5       )
							(-0.05006404 -0.00236759  0.5       )
							(-0.03348776 -0.00154337  0.5       )
							(-0.01679713 -0.00075233  0.5       )

						)
);

boundary
(
    inOut
    {
        type patch;
        faces
        (
            ( 6  4  5  7)
            ( 6  8  9  7)
            ( 10 12 13 11 )
            ( 12 14 15 13 )
            ( 4 14 15  5 )
            ( 8 10 11  9 )
        );
    }

    surface
    {
        type wall;
        faces
        (
            ( 0  2  3  1)
            ( 0 16 17  1)
        );
    }
    interface1
    {
        type patch;
        faces
        (
            ( 2 12 13  3)
        );
    }

    interface2
    {
        type patch;
        faces
        (
            (16 12 13 17)
        );
    }
);

mergePatchPairs
(
    (interface1 interface2)
);
