/*---------------------------------*- C++ -*-----------------------------------*/
//    //////////////      ///////////////
//    //////////////      //////////////
//         ////           ////             /////       ////  //  /// //// ////
//         ////     ////  ///////////   ///    ///  ///    ///   ////  ///  ///
//  ////   ////           ///////////   ///    ///  ///    ///   ///   ///  ///
//   //// ////            ////          ///    ///  ///    ///   ///   ///  ///
//     /////              ////            /////       ///// ///  ///   ///  ///
/*---------------------------------*- C++ -*-----------------------------------*/

FoamFile
{
		version			2.0;
		format			ascii;
		class				dictionary;
		object			blockMeshDict;
}

// ***************************************************************************** //

scale				1;

vertices
(
		(-1.0 0.0 -0.5)	//	0
		(-1.0 0.0 0.5)	//	1
		(0.0 0.0 -0.5)	//	2
		(0.0 0.0 0.5)	//	3
		(0.0 10.0 -0.5)	//	4
		(0.0 10.0 0.5)	//	5
		(-10.0 0.0 -0.5)	//	6
		(-10.0 0.0 0.5)	//	7
		(0.0 -10.0 -0.5)	//	8
		(0.0 -10.0 0.5)	//	9
		(10.0 -10.0 -0.5)	//	10
		(10.0 -10.0 0.5)	//	11
		(10.0 0.0 -0.5)	//	12
		(10.0 0.0 0.5)	//	13
		(10.0 10.0 -0.5)	//	14
		(10.0 10.0 0.5)	//	15
		(0.0 0.0 -0.5)	//	16
		(0.0 0.0 0.5)	//	17
);

blocks
(
		hex ( 0  2  4  6  1  3  5  7 ) (160 80 1) edgeGrading (1   0.4  0.4  1 2500 2500 2500 2500 1 1 1 1) // 0
		hex ( 6  8 16  0  7  9 17  1 ) (160 80 1) edgeGrading (0.4   1   1 0.4 0.0004 0.0004 0.0004 0.0004 1 1 1 1) // 1
		hex ( 8 10 12 16  9 11 13 17 ) (80 80 1) simpleGrading ( 50 0.0004 1) // 1
		hex ( 2 12 14  4  3 13 15  5 ) (80 80 1) simpleGrading ( 50 2500 1) // 1
);

edges
(
		arc  4  6  90.0  (0 0 1)
		arc  5  7  90.0  (0 0 1)
		arc  6  8  90.0  (0 0 1)
		arc  7  9  90.0  (0 0 1)
		spline 0  2 (
							(-0.99961671  0.00357735 -0.5       )
							(-0.99849926  0.00698704 -0.5       )
							(-0.99669471  0.01023564 -0.5       )
							(-0.99424799  0.01332946 -0.5       )
							(-0.99120196  0.01627465 -0.5       )
							(-0.98759749  0.01907715 -0.5       )
							(-0.98347349  0.02174269 -0.5       )
							(-0.97886698  0.02427682 -0.5       )
							(-0.9738131   0.02668489 -0.5       )
							(-0.96834523  0.02897204 -0.5       )
							(-0.96249495  0.03114324 -0.5       )
							(-0.95629217  0.03320327 -0.5       )
							(-0.94976514  0.03515672 -0.5       )
							(-0.9429405  0.037008  -0.5      )
							(-0.93584334  0.03876134 -0.5       )
							(-0.92849721  0.04042079 -0.5       )
							(-0.92092423  0.04199022 -0.5       )
							(-0.91314509  0.04347334 -0.5       )
							(-0.9051791   0.04487368 -0.5       )
							(-0.89704424  0.0461946  -0.5       )
							(-0.88875722  0.04743931 -0.5       )
							(-0.88033349  0.04861085 -0.5       )
							(-0.87178732  0.04971209 -0.5       )
							(-0.86313182  0.05074578 -0.5       )
							(-0.85437897  0.05171447 -0.5       )
							(-0.84553971  0.0526206  -0.5       )
							(-0.83662393  0.05346645 -0.5       )
							(-0.82764053  0.05425416 -0.5       )
							(-0.81859748  0.05498573 -0.5       )
							(-0.80950181  0.05566301 -0.5       )
							(-0.80035971  0.05628775 -0.5       )
							(-0.79117652  0.05686154 -0.5       )
							(-0.78195679  0.05738587 -0.5       )
							(-0.77270432  0.05786209 -0.5       )
							(-0.76342217  0.05829145 -0.5       )
							(-0.75411273  0.05867506 -0.5       )
							(-0.74477774  0.05901396 -0.5       )
							(-0.73541833  0.05930904 -0.5       )
							(-0.72603506  0.05956112 -0.5       )
							(-0.71662792  0.05977092 -0.5       )
							(-0.7071964   0.05993904 -0.5       )
							(-0.69773953  0.06006603 -0.5       )
							(-0.68825587  0.06015232 -0.5       )
							(-0.67874357  0.06019828 -0.5       )
							(-0.66920043  0.06020419 -0.5       )
							(-0.65962386  0.06017028 -0.5       )
							(-0.65001095  0.06009669 -0.5       )
							(-0.64035854  0.0599835  -0.5       )
							(-0.63066316  0.05983075 -0.5       )
							(-0.62092113  0.0596384  -0.5       )
							(-0.61112858  0.05940639 -0.5       )
							(-0.60128143  0.05913459 -0.5       )
							(-0.59137547  0.05882285 -0.5       )
							(-0.58140636  0.05847097 -0.5       )
							(-0.57136968  0.05807873 -0.5       )
							(-0.5612609  0.0576459 -0.5      )
							(-0.55107549  0.0571722  -0.5       )
							(-0.54080886  0.05665736 -0.5       )
							(-0.53045644  0.05610109 -0.5       )
							(-0.52001368  0.05550311 -0.5       )
							(-0.50947607  0.05486313 -0.5       )
							(-0.49883919  0.05418087 -0.5       )
							(-0.4880987   0.05345606 -0.5       )
							(-0.47725036  0.05268847 -0.5       )
							(-0.46629008  0.05187786 -0.5       )
							(-0.45521392  0.05102406 -0.5       )
							(-0.44401811  0.0501269  -0.5       )
							(-0.43269907  0.04918627 -0.5       )
							(-0.42125344  0.04820211 -0.5       )
							(-0.40967807  0.0471744  -0.5       )
							(-0.39797009  0.04610319 -0.5       )
							(-0.38612685  0.04498861 -0.5       )
							(-0.37414601  0.04383083 -0.5       )
							(-0.36202552  0.04263011 -0.5       )
							(-0.34976362  0.04138682 -0.5       )
							(-0.3373589   0.04010138 -0.5       )
							(-0.32481028  0.03877434 -0.5       )
							(-0.31211702  0.03740634 -0.5       )
							(-0.29927878  0.03599813 -0.5       )
							(-0.28629555  0.03455057 -0.5       )
							(-0.27316775  0.03306466 -0.5       )
							(-0.2598962   0.03154151 -0.5       )
							(-0.24648209  0.0299824  -0.5       )
							(-0.2329271   0.02838872 -0.5       )
							(-0.21923328  0.02676202 -0.5       )
							(-0.20540316  0.02510402 -0.5       )
							(-0.19143971  0.02341659 -0.5       )
							(-0.17734637  0.02170178 -0.5       )
							(-0.16312703  0.01996181 -0.5       )
							(-0.14878606  0.01819911 -0.5       )
							(-0.13432833  0.01641626 -0.5       )
							(-0.11975916  0.01461609 -0.5       )
							(-0.10508439  0.01280161 -0.5       )
							(-0.09031036  0.01097605 -0.5       )
							(-0.07544391  0.00914286 -0.5       )
							(-0.06049236  0.00730572 -0.5       )
							(-0.04546358  0.00546858 -0.5       )
							(-0.03036592  0.00363558 -0.5       )
							(-0.01520826  0.00181116 -0.5       )

						)
		spline 1  3 (
							(-0.99961671  0.00357735  0.5       )
							(-0.99849926  0.00698704  0.5       )
							(-0.99669471  0.01023564  0.5       )
							(-0.99424799  0.01332946  0.5       )
							(-0.99120196  0.01627465  0.5       )
							(-0.98759749  0.01907715  0.5       )
							(-0.98347349  0.02174269  0.5       )
							(-0.97886698  0.02427682  0.5       )
							(-0.9738131   0.02668489  0.5       )
							(-0.96834523  0.02897204  0.5       )
							(-0.96249495  0.03114324  0.5       )
							(-0.95629217  0.03320327  0.5       )
							(-0.94976514  0.03515672  0.5       )
							(-0.9429405  0.037008   0.5      )
							(-0.93584334  0.03876134  0.5       )
							(-0.92849721  0.04042079  0.5       )
							(-0.92092423  0.04199022  0.5       )
							(-0.91314509  0.04347334  0.5       )
							(-0.9051791   0.04487368  0.5       )
							(-0.89704424  0.0461946   0.5       )
							(-0.88875722  0.04743931  0.5       )
							(-0.88033349  0.04861085  0.5       )
							(-0.87178732  0.04971209  0.5       )
							(-0.86313182  0.05074578  0.5       )
							(-0.85437897  0.05171447  0.5       )
							(-0.84553971  0.0526206   0.5       )
							(-0.83662393  0.05346645  0.5       )
							(-0.82764053  0.05425416  0.5       )
							(-0.81859748  0.05498573  0.5       )
							(-0.80950181  0.05566301  0.5       )
							(-0.80035971  0.05628775  0.5       )
							(-0.79117652  0.05686154  0.5       )
							(-0.78195679  0.05738587  0.5       )
							(-0.77270432  0.05786209  0.5       )
							(-0.76342217  0.05829145  0.5       )
							(-0.75411273  0.05867506  0.5       )
							(-0.74477774  0.05901396  0.5       )
							(-0.73541833  0.05930904  0.5       )
							(-0.72603506  0.05956112  0.5       )
							(-0.71662792  0.05977092  0.5       )
							(-0.7071964   0.05993904  0.5       )
							(-0.69773953  0.06006603  0.5       )
							(-0.68825587  0.06015232  0.5       )
							(-0.67874357  0.06019828  0.5       )
							(-0.66920043  0.06020419  0.5       )
							(-0.65962386  0.06017028  0.5       )
							(-0.65001095  0.06009669  0.5       )
							(-0.64035854  0.0599835   0.5       )
							(-0.63066316  0.05983075  0.5       )
							(-0.62092113  0.0596384   0.5       )
							(-0.61112858  0.05940639  0.5       )
							(-0.60128143  0.05913459  0.5       )
							(-0.59137547  0.05882285  0.5       )
							(-0.58140636  0.05847097  0.5       )
							(-0.57136968  0.05807873  0.5       )
							(-0.5612609  0.0576459  0.5      )
							(-0.55107549  0.0571722   0.5       )
							(-0.54080886  0.05665736  0.5       )
							(-0.53045644  0.05610109  0.5       )
							(-0.52001368  0.05550311  0.5       )
							(-0.50947607  0.05486313  0.5       )
							(-0.49883919  0.05418087  0.5       )
							(-0.4880987   0.05345606  0.5       )
							(-0.47725036  0.05268847  0.5       )
							(-0.46629008  0.05187786  0.5       )
							(-0.45521392  0.05102406  0.5       )
							(-0.44401811  0.0501269   0.5       )
							(-0.43269907  0.04918627  0.5       )
							(-0.42125344  0.04820211  0.5       )
							(-0.40967807  0.0471744   0.5       )
							(-0.39797009  0.04610319  0.5       )
							(-0.38612685  0.04498861  0.5       )
							(-0.37414601  0.04383083  0.5       )
							(-0.36202552  0.04263011  0.5       )
							(-0.34976362  0.04138682  0.5       )
							(-0.3373589   0.04010138  0.5       )
							(-0.32481028  0.03877434  0.5       )
							(-0.31211702  0.03740634  0.5       )
							(-0.29927878  0.03599813  0.5       )
							(-0.28629555  0.03455057  0.5       )
							(-0.27316775  0.03306466  0.5       )
							(-0.2598962   0.03154151  0.5       )
							(-0.24648209  0.0299824   0.5       )
							(-0.2329271   0.02838872  0.5       )
							(-0.21923328  0.02676202  0.5       )
							(-0.20540316  0.02510402  0.5       )
							(-0.19143971  0.02341659  0.5       )
							(-0.17734637  0.02170178  0.5       )
							(-0.16312703  0.01996181  0.5       )
							(-0.14878606  0.01819911  0.5       )
							(-0.13432833  0.01641626  0.5       )
							(-0.11975916  0.01461609  0.5       )
							(-0.10508439  0.01280161  0.5       )
							(-0.09031036  0.01097605  0.5       )
							(-0.07544391  0.00914286  0.5       )
							(-0.06049236  0.00730572  0.5       )
							(-0.04546358  0.00546858  0.5       )
							(-0.03036592  0.00363558  0.5       )
							(-0.01520826  0.00181116  0.5       )

						)
		spline 0 16 (
							(-0.99964801 -0.00353325 -0.5       )
							(-0.9986216  -0.00690192 -0.5       )
							(-0.9969636  -0.01011245 -0.5       )
							(-0.99471481 -0.01317112 -0.5       )
							(-0.99191409 -0.01608399 -0.5       )
							(-0.98859841 -0.0188569  -0.5       )
							(-0.98480289 -0.02149553 -0.5       )
							(-0.98056084 -0.02400534 -0.5       )
							(-0.97590383 -0.02639159 -0.5       )
							(-0.97086174 -0.02865935 -0.5       )
							(-0.96546279 -0.03081352 -0.5       )
							(-0.95973363 -0.03285879 -0.5       )
							(-0.95369931 -0.03479968 -0.5       )
							(-0.94738343 -0.03664051 -0.5       )
							(-0.9408081  -0.03838544 -0.5       )
							(-0.93399403 -0.04003843 -0.5       )
							(-0.92696057 -0.04160328 -0.5       )
							(-0.91972575 -0.04308362 -0.5       )
							(-0.91230633 -0.04448291 -0.5       )
							(-0.90471784 -0.04580442 -0.5       )
							(-0.89697462 -0.04705129 -0.5       )
							(-0.88908987 -0.04822647 -0.5       )
							(-0.8810757  -0.04933278 -0.5       )
							(-0.87294316 -0.05037286 -0.5       )
							(-0.86470228 -0.05134921 -0.5       )
							(-0.85636212 -0.05226419 -0.5       )
							(-0.84793081 -0.05312    -0.5       )
							(-0.83941558 -0.0539187  -0.5       )
							(-0.83082281 -0.05466222 -0.5       )
							(-0.82215807 -0.05535235 -0.5       )
							(-0.81342615 -0.05599076 -0.5       )
							(-0.80463109 -0.05657897 -0.5       )
							(-0.79577625 -0.05711838 -0.5       )
							(-0.78686432 -0.0576103  -0.5       )
							(-0.77789735 -0.05805589 -0.5       )
							(-0.76887681 -0.05845622 -0.5       )
							(-0.7598036  -0.05881222 -0.5       )
							(-0.75067811 -0.05912475 -0.5       )
							(-0.74150025 -0.05939455 -0.5       )
							(-0.73226944 -0.05962228 -0.5       )
							(-0.72298472 -0.05980848 -0.5       )
							(-0.71364471 -0.05995363 -0.5       )
							(-0.70424768 -0.06005811 -0.5       )
							(-0.69479158 -0.06012223 -0.5       )
							(-0.68527407 -0.06014621 -0.5       )
							(-0.67569252 -0.06013022 -0.5       )
							(-0.66604408 -0.06007436 -0.5       )
							(-0.6563257  -0.05997865 -0.5       )
							(-0.64653415 -0.05984307 -0.5       )
							(-0.63666603 -0.05966754 -0.5       )
							(-0.62671784 -0.05945195 -0.5       )
							(-0.61668599 -0.05919613 -0.5       )
							(-0.60656678 -0.05889987 -0.5       )
							(-0.59635652 -0.05856295 -0.5       )
							(-0.58605147 -0.0581851  -0.5       )
							(-0.5756479  -0.05776604 -0.5       )
							(-0.56514213 -0.05730547 -0.5       )
							(-0.55453051 -0.05680308 -0.5       )
							(-0.54380948 -0.05625855 -0.5       )
							(-0.53297558 -0.05567157 -0.5       )
							(-0.52202549 -0.05504181 -0.5       )
							(-0.510956   -0.05436898 -0.5       )
							(-0.49976409 -0.05365279 -0.5       )
							(-0.48844693 -0.05289298 -0.5       )
							(-0.47700188 -0.0520893  -0.5       )
							(-0.46542654 -0.05124155 -0.5       )
							(-0.45371873 -0.05034956 -0.5       )
							(-0.44187656 -0.04941321 -0.5       )
							(-0.42989841 -0.04843242 -0.5       )
							(-0.41778296 -0.04740719 -0.5       )
							(-0.4055292  -0.04633755 -0.5       )
							(-0.39313645 -0.04522363 -0.5       )
							(-0.38060438 -0.04406562 -0.5       )
							(-0.36793301 -0.04286378 -0.5       )
							(-0.35512276 -0.04161848 -0.5       )
							(-0.34217442 -0.04033017 -0.5       )
							(-0.32908918 -0.03899941 -0.5       )
							(-0.31586866 -0.03762686 -0.5       )
							(-0.3025149  -0.03621329 -0.5       )
							(-0.28903038 -0.0347596  -0.5       )
							(-0.27541802 -0.03326682 -0.5       )
							(-0.26168124 -0.03173609 -0.5       )
							(-0.24782388 -0.03016872 -0.5       )
							(-0.2338503  -0.02856616 -0.5       )
							(-0.21976534 -0.02692999 -0.5       )
							(-0.20557432 -0.02526199 -0.5       )
							(-0.19128311 -0.02356408 -0.5       )
							(-0.17689805 -0.02183837 -0.5       )
							(-0.16242602 -0.02008714 -0.5       )
							(-0.14787444 -0.01831288 -0.5       )
							(-0.13325124 -0.01651827 -0.5       )
							(-0.1185649  -0.01470618 -0.5       )
							(-0.10382445 -0.01287971 -0.5       )
							(-0.08903946 -0.01104218 -0.5       )
							(-0.07422006 -0.00919713 -0.5       )
							(-0.05937691 -0.00734834 -0.5       )
							(-0.04452126 -0.00549982 -0.5       )
							(-0.02966489 -0.00365586 -0.5       )
							(-0.01482017 -0.00182099 -0.5       )

						)
		spline 1 17 (
							(-0.99964801 -0.00353325  0.5       )
							(-0.9986216  -0.00690192  0.5       )
							(-0.9969636  -0.01011245  0.5       )
							(-0.99471481 -0.01317112  0.5       )
							(-0.99191409 -0.01608399  0.5       )
							(-0.98859841 -0.0188569   0.5       )
							(-0.98480289 -0.02149553  0.5       )
							(-0.98056084 -0.02400534  0.5       )
							(-0.97590383 -0.02639159  0.5       )
							(-0.97086174 -0.02865935  0.5       )
							(-0.96546279 -0.03081352  0.5       )
							(-0.95973363 -0.03285879  0.5       )
							(-0.95369931 -0.03479968  0.5       )
							(-0.94738343 -0.03664051  0.5       )
							(-0.9408081  -0.03838544  0.5       )
							(-0.93399403 -0.04003843  0.5       )
							(-0.92696057 -0.04160328  0.5       )
							(-0.91972575 -0.04308362  0.5       )
							(-0.91230633 -0.04448291  0.5       )
							(-0.90471784 -0.04580442  0.5       )
							(-0.89697462 -0.04705129  0.5       )
							(-0.88908987 -0.04822647  0.5       )
							(-0.8810757  -0.04933278  0.5       )
							(-0.87294316 -0.05037286  0.5       )
							(-0.86470228 -0.05134921  0.5       )
							(-0.85636212 -0.05226419  0.5       )
							(-0.84793081 -0.05312     0.5       )
							(-0.83941558 -0.0539187   0.5       )
							(-0.83082281 -0.05466222  0.5       )
							(-0.82215807 -0.05535235  0.5       )
							(-0.81342615 -0.05599076  0.5       )
							(-0.80463109 -0.05657897  0.5       )
							(-0.79577625 -0.05711838  0.5       )
							(-0.78686432 -0.0576103   0.5       )
							(-0.77789735 -0.05805589  0.5       )
							(-0.76887681 -0.05845622  0.5       )
							(-0.7598036  -0.05881222  0.5       )
							(-0.75067811 -0.05912475  0.5       )
							(-0.74150025 -0.05939455  0.5       )
							(-0.73226944 -0.05962228  0.5       )
							(-0.72298472 -0.05980848  0.5       )
							(-0.71364471 -0.05995363  0.5       )
							(-0.70424768 -0.06005811  0.5       )
							(-0.69479158 -0.06012223  0.5       )
							(-0.68527407 -0.06014621  0.5       )
							(-0.67569252 -0.06013022  0.5       )
							(-0.66604408 -0.06007436  0.5       )
							(-0.6563257  -0.05997865  0.5       )
							(-0.64653415 -0.05984307  0.5       )
							(-0.63666603 -0.05966754  0.5       )
							(-0.62671784 -0.05945195  0.5       )
							(-0.61668599 -0.05919613  0.5       )
							(-0.60656678 -0.05889987  0.5       )
							(-0.59635652 -0.05856295  0.5       )
							(-0.58605147 -0.0581851   0.5       )
							(-0.5756479  -0.05776604  0.5       )
							(-0.56514213 -0.05730547  0.5       )
							(-0.55453051 -0.05680308  0.5       )
							(-0.54380948 -0.05625855  0.5       )
							(-0.53297558 -0.05567157  0.5       )
							(-0.52202549 -0.05504181  0.5       )
							(-0.510956   -0.05436898  0.5       )
							(-0.49976409 -0.05365279  0.5       )
							(-0.48844693 -0.05289298  0.5       )
							(-0.47700188 -0.0520893   0.5       )
							(-0.46542654 -0.05124155  0.5       )
							(-0.45371873 -0.05034956  0.5       )
							(-0.44187656 -0.04941321  0.5       )
							(-0.42989841 -0.04843242  0.5       )
							(-0.41778296 -0.04740719  0.5       )
							(-0.4055292  -0.04633755  0.5       )
							(-0.39313645 -0.04522363  0.5       )
							(-0.38060438 -0.04406562  0.5       )
							(-0.36793301 -0.04286378  0.5       )
							(-0.35512276 -0.04161848  0.5       )
							(-0.34217442 -0.04033017  0.5       )
							(-0.32908918 -0.03899941  0.5       )
							(-0.31586866 -0.03762686  0.5       )
							(-0.3025149  -0.03621329  0.5       )
							(-0.28903038 -0.0347596   0.5       )
							(-0.27541802 -0.03326682  0.5       )
							(-0.26168124 -0.03173609  0.5       )
							(-0.24782388 -0.03016872  0.5       )
							(-0.2338503  -0.02856616  0.5       )
							(-0.21976534 -0.02692999  0.5       )
							(-0.20557432 -0.02526199  0.5       )
							(-0.19128311 -0.02356408  0.5       )
							(-0.17689805 -0.02183837  0.5       )
							(-0.16242602 -0.02008714  0.5       )
							(-0.14787444 -0.01831288  0.5       )
							(-0.13325124 -0.01651827  0.5       )
							(-0.1185649  -0.01470618  0.5       )
							(-0.10382445 -0.01287971  0.5       )
							(-0.08903946 -0.01104218  0.5       )
							(-0.07422006 -0.00919713  0.5       )
							(-0.05937691 -0.00734834  0.5       )
							(-0.04452126 -0.00549982  0.5       )
							(-0.02966489 -0.00365586  0.5       )
							(-0.01482017 -0.00182099  0.5       )

						)
);

boundary
(
    down
    {
        type patch;
        faces
        (
            ( 8 10 11  9 )
        );
    }
    up
    {
        type patch;
        faces
        (
            ( 4 14 15  5 )
        );
    }
    right
    {
        type patch;
        faces
        (
            ( 10 12 13 11 )
            ( 12 14 15 13 )
        );
    }
    meanFlow
    {
        type patch;
        faces
        (
            ( 6  4  5  7)
            ( 6  8  9  7)
        );
    }

    surface
    {
        type wall;
        faces
        (
            ( 0  2  3  1)
            ( 0 16 17  1)
        );
    }
    interface1
    {
        type patch;
        faces
        (
            ( 2 12 13  3)
        );
    }

    interface2
    {
        type patch;
        faces
        (
            (16 12 13 17)
        );
    }
);

mergePatchPairs
(
    (interface1 interface2)
);
