/*---------------------------------*- C++ -*-----------------------------------*/
//    //////////////      ///////////////
//    //////////////      //////////////
//         ////           ////             /////       ////  //  /// //// ////
//         ////     ////  ///////////   ///    ///  ///    ///   ////  ///  ///
//  ////   ////           ///////////   ///    ///  ///    ///   ///   ///  ///
//   //// ////            ////          ///    ///  ///    ///   ///   ///  ///
//     /////              ////            /////       ///// ///  ///   ///  ///
/*---------------------------------*- C++ -*-----------------------------------*/

FoamFile
{
		version			2.0;
		format			ascii;
		class				dictionary;
		object			blockMeshDict;
}

// ***************************************************************************** //

scale				1;

vertices
(
		(-0.3 0.0 -0.5)	//	0
		(-0.3 0.0 0.5)	//	1
		(0.0 0.0 -0.5)	//	2
		(0.0 0.0 0.5)	//	3
		(0.0 3.0 -0.5)	//	4
		(0.0 3.0 0.5)	//	5
		(-3.0 0.0 -0.5)	//	6
		(-3.0 0.0 0.5)	//	7
		(0.0 -3.0 -0.5)	//	8
		(0.0 -3.0 0.5)	//	9
		(3.0 -3.0 -0.5)	//	10
		(3.0 -3.0 0.5)	//	11
		(3.0 0.0 -0.5)	//	12
		(3.0 0.0 0.5)	//	13
		(3.0 3.0 -0.5)	//	14
		(3.0 3.0 0.5)	//	15
		(0.0 0.0 -0.5)	//	16
		(0.0 0.0 0.5)	//	17
);

blocks
(
		hex ( 0  2  4  6  1  3  5  7 ) (100 30 1) edgeGrading ( 50  1  1 50 1000 1000 1000 1000 1 1 1 1) // 0
		hex ( 6  8 16  0  7  9 17  1 ) (100 30 1) edgeGrading (  1 50 50  1 0.001 0.001 0.001 0.001 1 1 1 1) // 1
		hex ( 8 10 12 16  9 11 13 17 ) (50 30 1) simpleGrading ( 200 0.001 1) // 1
		hex ( 2 12 14  4  3 13 15  5 ) (50 30 1) simpleGrading ( 200 1000 1) // 1
);

edges
(
		arc  4  6  90.0  (0 0 1)
		arc  5  7  90.0  (0 0 1)
		arc  6  8  90.0  (0 0 1)
		arc  7  9  90.0  (0 0 1)
		spline 0  2 (
							(-0.29991893  0.00107767 -0.5       )
							(-0.29967909  0.00211981 -0.5       )
							(-0.29928543  0.00312742 -0.5       )
							(-0.29874284  0.00410149 -0.5       )
							(-0.29805607  0.00504297 -0.5       )
							(-0.29722982  0.00595274 -0.5       )
							(-0.29626866  0.00683164 -0.5       )
							(-0.29517708  0.0076805  -0.5       )
							(-0.29395948  0.00850008 -0.5       )
							(-0.29262017  0.00929111 -0.5       )
							(-0.29116336  0.01005427 -0.5       )
							(-0.28959318  0.01079023 -0.5       )
							(-0.28791367  0.0114996  -0.5       )
							(-0.28612877  0.01218297 -0.5       )
							(-0.28424236  0.01284088 -0.5       )
							(-0.2822582   0.01347384 -0.5       )
							(-0.28018     0.01408236 -0.5       )
							(-0.27801136  0.01466687 -0.5       )
							(-0.27575581  0.0152278  -0.5       )
							(-0.2734168   0.01576556 -0.5       )
							(-0.27099768  0.01628051 -0.5       )
							(-0.26850175  0.01677298 -0.5       )
							(-0.2659322   0.01724331 -0.5       )
							(-0.26329217  0.01769178 -0.5       )
							(-0.26058471  0.01811867 -0.5       )
							(-0.25781278  0.01852422 -0.5       )
							(-0.2549793   0.01890866 -0.5       )
							(-0.25208707  0.0192722  -0.5       )
							(-0.24913886  0.01961503 -0.5       )
							(-0.24613735  0.01993731 -0.5       )
							(-0.24308513  0.02023922 -0.5       )
							(-0.23998475  0.02052087 -0.5       )
							(-0.23683868  0.02078241 -0.5       )
							(-0.23364932  0.02102395 -0.5       )
							(-0.23041899  0.02124558 -0.5       )
							(-0.22714996  0.02144739 -0.5       )
							(-0.22384444  0.02162946 -0.5       )
							(-0.22050455  0.02179186 -0.5       )
							(-0.21713237  0.02193466 -0.5       )
							(-0.21372991  0.02205791 -0.5       )
							(-0.21029911  0.02216166 -0.5       )
							(-0.20684186  0.02224595 -0.5       )
							(-0.20335998  0.02231083 -0.5       )
							(-0.19985525  0.02235634 -0.5       )
							(-0.19632936  0.02238251 -0.5       )
							(-0.19278398  0.02238938 -0.5       )
							(-0.18922069  0.02237699 -0.5       )
							(-0.18564105  0.02234538 -0.5       )
							(-0.18204653  0.0222946  -0.5       )
							(-0.17843856  0.02222469 -0.5       )
							(-0.17481854  0.0221357  -0.5       )
							(-0.17118778  0.0220277  -0.5       )
							(-0.16754757  0.02190074 -0.5       )
							(-0.16389914  0.02175491 -0.5       )
							(-0.16024367  0.02159029 -0.5       )
							(-0.15658228  0.02140697 -0.5       )
							(-0.15291608  0.02120505 -0.5       )
							(-0.1492461   0.02098466 -0.5       )
							(-0.14557333  0.02074594 -0.5       )
							(-0.14189874  0.02048902 -0.5       )
							(-0.13822323  0.02021407 -0.5       )
							(-0.13454767  0.01992127 -0.5       )
							(-0.13087288  0.01961082 -0.5       )
							(-0.12719966  0.01928294 -0.5       )
							(-0.12352876  0.01893787 -0.5       )
							(-0.11986088  0.01857586 -0.5       )
							(-0.1161967  0.0181972 -0.5      )
							(-0.11253686  0.0178022  -0.5       )
							(-0.10888196  0.01739118 -0.5       )
							(-0.10523257  0.01696449 -0.5       )
							(-0.10158922  0.01652253 -0.5       )
							(-0.09795242  0.0160657  -0.5       )
							(-0.09432264  0.01559445 -0.5       )
							(-0.09070031  0.01510923 -0.5       )
							(-0.08708587  0.01461056 -0.5       )
							(-0.08347968  0.01409896 -0.5       )
							(-0.0798821   0.01357501 -0.5       )
							(-0.07629346  0.0130393  -0.5       )
							(-0.07271407  0.01249246 -0.5       )
							(-0.06914421  0.01193517 -0.5       )
							(-0.06558413  0.01136815 -0.5       )
							(-0.06203406  0.01079213 -0.5       )
							(-0.05849421  0.01020791 -0.5       )
							(-0.05496479  0.00961632 -0.5       )
							(-0.05144595  0.00901823 -0.5       )
							(-0.04793785  0.00841455 -0.5       )
							(-0.04444062  0.00780624 -0.5       )
							(-0.04095437  0.0071943  -0.5       )
							(-0.03747922  0.00657979 -0.5       )
							(-0.03401524  0.0059638  -0.5       )
							(-0.03056251  0.00534748 -0.5       )
							(-0.02712108  0.00473202 -0.5       )
							(-0.02369101  0.00411866 -0.5       )
							(-0.02027231  0.00350872 -0.5       )
							(-0.01686503  0.00290353 -0.5       )
							(-0.01346917  0.0023045  -0.5       )
							(-0.01008474  0.00171309 -0.5       )
							(-0.00671174  0.00113081 -0.5       )
							(-0.00335017  0.00055924 -0.5       )

						)
		spline 1  3 (
							(-0.29991893  0.00107767  0.5       )
							(-0.29967909  0.00211981  0.5       )
							(-0.29928543  0.00312742  0.5       )
							(-0.29874284  0.00410149  0.5       )
							(-0.29805607  0.00504297  0.5       )
							(-0.29722982  0.00595274  0.5       )
							(-0.29626866  0.00683164  0.5       )
							(-0.29517708  0.0076805   0.5       )
							(-0.29395948  0.00850008  0.5       )
							(-0.29262017  0.00929111  0.5       )
							(-0.29116336  0.01005427  0.5       )
							(-0.28959318  0.01079023  0.5       )
							(-0.28791367  0.0114996   0.5       )
							(-0.28612877  0.01218297  0.5       )
							(-0.28424236  0.01284088  0.5       )
							(-0.2822582   0.01347384  0.5       )
							(-0.28018     0.01408236  0.5       )
							(-0.27801136  0.01466687  0.5       )
							(-0.27575581  0.0152278   0.5       )
							(-0.2734168   0.01576556  0.5       )
							(-0.27099768  0.01628051  0.5       )
							(-0.26850175  0.01677298  0.5       )
							(-0.2659322   0.01724331  0.5       )
							(-0.26329217  0.01769178  0.5       )
							(-0.26058471  0.01811867  0.5       )
							(-0.25781278  0.01852422  0.5       )
							(-0.2549793   0.01890866  0.5       )
							(-0.25208707  0.0192722   0.5       )
							(-0.24913886  0.01961503  0.5       )
							(-0.24613735  0.01993731  0.5       )
							(-0.24308513  0.02023922  0.5       )
							(-0.23998475  0.02052087  0.5       )
							(-0.23683868  0.02078241  0.5       )
							(-0.23364932  0.02102395  0.5       )
							(-0.23041899  0.02124558  0.5       )
							(-0.22714996  0.02144739  0.5       )
							(-0.22384444  0.02162946  0.5       )
							(-0.22050455  0.02179186  0.5       )
							(-0.21713237  0.02193466  0.5       )
							(-0.21372991  0.02205791  0.5       )
							(-0.21029911  0.02216166  0.5       )
							(-0.20684186  0.02224595  0.5       )
							(-0.20335998  0.02231083  0.5       )
							(-0.19985525  0.02235634  0.5       )
							(-0.19632936  0.02238251  0.5       )
							(-0.19278398  0.02238938  0.5       )
							(-0.18922069  0.02237699  0.5       )
							(-0.18564105  0.02234538  0.5       )
							(-0.18204653  0.0222946   0.5       )
							(-0.17843856  0.02222469  0.5       )
							(-0.17481854  0.0221357   0.5       )
							(-0.17118778  0.0220277   0.5       )
							(-0.16754757  0.02190074  0.5       )
							(-0.16389914  0.02175491  0.5       )
							(-0.16024367  0.02159029  0.5       )
							(-0.15658228  0.02140697  0.5       )
							(-0.15291608  0.02120505  0.5       )
							(-0.1492461   0.02098466  0.5       )
							(-0.14557333  0.02074594  0.5       )
							(-0.14189874  0.02048902  0.5       )
							(-0.13822323  0.02021407  0.5       )
							(-0.13454767  0.01992127  0.5       )
							(-0.13087288  0.01961082  0.5       )
							(-0.12719966  0.01928294  0.5       )
							(-0.12352876  0.01893787  0.5       )
							(-0.11986088  0.01857586  0.5       )
							(-0.1161967  0.0181972  0.5      )
							(-0.11253686  0.0178022   0.5       )
							(-0.10888196  0.01739118  0.5       )
							(-0.10523257  0.01696449  0.5       )
							(-0.10158922  0.01652253  0.5       )
							(-0.09795242  0.0160657   0.5       )
							(-0.09432264  0.01559445  0.5       )
							(-0.09070031  0.01510923  0.5       )
							(-0.08708587  0.01461056  0.5       )
							(-0.08347968  0.01409896  0.5       )
							(-0.0798821   0.01357501  0.5       )
							(-0.07629346  0.0130393   0.5       )
							(-0.07271407  0.01249246  0.5       )
							(-0.06914421  0.01193517  0.5       )
							(-0.06558413  0.01136815  0.5       )
							(-0.06203406  0.01079213  0.5       )
							(-0.05849421  0.01020791  0.5       )
							(-0.05496479  0.00961632  0.5       )
							(-0.05144595  0.00901823  0.5       )
							(-0.04793785  0.00841455  0.5       )
							(-0.04444062  0.00780624  0.5       )
							(-0.04095437  0.0071943   0.5       )
							(-0.03747922  0.00657979  0.5       )
							(-0.03401524  0.0059638   0.5       )
							(-0.03056251  0.00534748  0.5       )
							(-0.02712108  0.00473202  0.5       )
							(-0.02369101  0.00411866  0.5       )
							(-0.02027231  0.00350872  0.5       )
							(-0.01686503  0.00290353  0.5       )
							(-0.01346917  0.0023045   0.5       )
							(-0.01008474  0.00171309  0.5       )
							(-0.00671174  0.00113081  0.5       )
							(-0.00335017  0.00055924  0.5       )

						)
		spline 0 16 (
							(-0.29991893 -0.00107767 -0.5       )
							(-0.29967909 -0.00211981 -0.5       )
							(-0.29928543 -0.00312742 -0.5       )
							(-0.29874284 -0.00410149 -0.5       )
							(-0.29805607 -0.00504297 -0.5       )
							(-0.29722982 -0.00595274 -0.5       )
							(-0.29626866 -0.00683164 -0.5       )
							(-0.29517708 -0.0076805  -0.5       )
							(-0.29395948 -0.00850008 -0.5       )
							(-0.29262017 -0.00929111 -0.5       )
							(-0.29116336 -0.01005427 -0.5       )
							(-0.28959318 -0.01079023 -0.5       )
							(-0.28791367 -0.0114996  -0.5       )
							(-0.28612877 -0.01218297 -0.5       )
							(-0.28424236 -0.01284088 -0.5       )
							(-0.2822582  -0.01347384 -0.5       )
							(-0.28018    -0.01408236 -0.5       )
							(-0.27801136 -0.01466687 -0.5       )
							(-0.27575581 -0.0152278  -0.5       )
							(-0.2734168  -0.01576556 -0.5       )
							(-0.27099768 -0.01628051 -0.5       )
							(-0.26850175 -0.01677298 -0.5       )
							(-0.2659322  -0.01724331 -0.5       )
							(-0.26329217 -0.01769178 -0.5       )
							(-0.26058471 -0.01811867 -0.5       )
							(-0.25781278 -0.01852422 -0.5       )
							(-0.2549793  -0.01890866 -0.5       )
							(-0.25208707 -0.0192722  -0.5       )
							(-0.24913886 -0.01961503 -0.5       )
							(-0.24613735 -0.01993731 -0.5       )
							(-0.24308513 -0.02023922 -0.5       )
							(-0.23998475 -0.02052087 -0.5       )
							(-0.23683868 -0.02078241 -0.5       )
							(-0.23364932 -0.02102395 -0.5       )
							(-0.23041899 -0.02124558 -0.5       )
							(-0.22714996 -0.02144739 -0.5       )
							(-0.22384444 -0.02162946 -0.5       )
							(-0.22050455 -0.02179186 -0.5       )
							(-0.21713237 -0.02193466 -0.5       )
							(-0.21372991 -0.02205791 -0.5       )
							(-0.21029911 -0.02216166 -0.5       )
							(-0.20684186 -0.02224595 -0.5       )
							(-0.20335998 -0.02231083 -0.5       )
							(-0.19985525 -0.02235634 -0.5       )
							(-0.19632936 -0.02238251 -0.5       )
							(-0.19278398 -0.02238938 -0.5       )
							(-0.18922069 -0.02237699 -0.5       )
							(-0.18564105 -0.02234538 -0.5       )
							(-0.18204653 -0.0222946  -0.5       )
							(-0.17843856 -0.02222469 -0.5       )
							(-0.17481854 -0.0221357  -0.5       )
							(-0.17118778 -0.0220277  -0.5       )
							(-0.16754757 -0.02190074 -0.5       )
							(-0.16389914 -0.02175491 -0.5       )
							(-0.16024367 -0.02159029 -0.5       )
							(-0.15658228 -0.02140697 -0.5       )
							(-0.15291608 -0.02120505 -0.5       )
							(-0.1492461  -0.02098466 -0.5       )
							(-0.14557333 -0.02074594 -0.5       )
							(-0.14189874 -0.02048902 -0.5       )
							(-0.13822323 -0.02021407 -0.5       )
							(-0.13454767 -0.01992127 -0.5       )
							(-0.13087288 -0.01961082 -0.5       )
							(-0.12719966 -0.01928294 -0.5       )
							(-0.12352876 -0.01893787 -0.5       )
							(-0.11986088 -0.01857586 -0.5       )
							(-0.1161967 -0.0181972 -0.5      )
							(-0.11253686 -0.0178022  -0.5       )
							(-0.10888196 -0.01739118 -0.5       )
							(-0.10523257 -0.01696449 -0.5       )
							(-0.10158922 -0.01652253 -0.5       )
							(-0.09795242 -0.0160657  -0.5       )
							(-0.09432264 -0.01559445 -0.5       )
							(-0.09070031 -0.01510923 -0.5       )
							(-0.08708587 -0.01461056 -0.5       )
							(-0.08347968 -0.01409896 -0.5       )
							(-0.0798821  -0.01357501 -0.5       )
							(-0.07629346 -0.0130393  -0.5       )
							(-0.07271407 -0.01249246 -0.5       )
							(-0.06914421 -0.01193517 -0.5       )
							(-0.06558413 -0.01136815 -0.5       )
							(-0.06203406 -0.01079213 -0.5       )
							(-0.05849421 -0.01020791 -0.5       )
							(-0.05496479 -0.00961632 -0.5       )
							(-0.05144595 -0.00901823 -0.5       )
							(-0.04793785 -0.00841455 -0.5       )
							(-0.04444062 -0.00780624 -0.5       )
							(-0.04095437 -0.0071943  -0.5       )
							(-0.03747922 -0.00657979 -0.5       )
							(-0.03401524 -0.0059638  -0.5       )
							(-0.03056251 -0.00534748 -0.5       )
							(-0.02712108 -0.00473202 -0.5       )
							(-0.02369101 -0.00411866 -0.5       )
							(-0.02027231 -0.00350872 -0.5       )
							(-0.01686503 -0.00290353 -0.5       )
							(-0.01346917 -0.0023045  -0.5       )
							(-0.01008474 -0.00171309 -0.5       )
							(-0.00671174 -0.00113081 -0.5       )
							(-0.00335017 -0.00055924 -0.5       )

						)
		spline 1 17 (
							(-0.29991893 -0.00107767  0.5       )
							(-0.29967909 -0.00211981  0.5       )
							(-0.29928543 -0.00312742  0.5       )
							(-0.29874284 -0.00410149  0.5       )
							(-0.29805607 -0.00504297  0.5       )
							(-0.29722982 -0.00595274  0.5       )
							(-0.29626866 -0.00683164  0.5       )
							(-0.29517708 -0.0076805   0.5       )
							(-0.29395948 -0.00850008  0.5       )
							(-0.29262017 -0.00929111  0.5       )
							(-0.29116336 -0.01005427  0.5       )
							(-0.28959318 -0.01079023  0.5       )
							(-0.28791367 -0.0114996   0.5       )
							(-0.28612877 -0.01218297  0.5       )
							(-0.28424236 -0.01284088  0.5       )
							(-0.2822582  -0.01347384  0.5       )
							(-0.28018    -0.01408236  0.5       )
							(-0.27801136 -0.01466687  0.5       )
							(-0.27575581 -0.0152278   0.5       )
							(-0.2734168  -0.01576556  0.5       )
							(-0.27099768 -0.01628051  0.5       )
							(-0.26850175 -0.01677298  0.5       )
							(-0.2659322  -0.01724331  0.5       )
							(-0.26329217 -0.01769178  0.5       )
							(-0.26058471 -0.01811867  0.5       )
							(-0.25781278 -0.01852422  0.5       )
							(-0.2549793  -0.01890866  0.5       )
							(-0.25208707 -0.0192722   0.5       )
							(-0.24913886 -0.01961503  0.5       )
							(-0.24613735 -0.01993731  0.5       )
							(-0.24308513 -0.02023922  0.5       )
							(-0.23998475 -0.02052087  0.5       )
							(-0.23683868 -0.02078241  0.5       )
							(-0.23364932 -0.02102395  0.5       )
							(-0.23041899 -0.02124558  0.5       )
							(-0.22714996 -0.02144739  0.5       )
							(-0.22384444 -0.02162946  0.5       )
							(-0.22050455 -0.02179186  0.5       )
							(-0.21713237 -0.02193466  0.5       )
							(-0.21372991 -0.02205791  0.5       )
							(-0.21029911 -0.02216166  0.5       )
							(-0.20684186 -0.02224595  0.5       )
							(-0.20335998 -0.02231083  0.5       )
							(-0.19985525 -0.02235634  0.5       )
							(-0.19632936 -0.02238251  0.5       )
							(-0.19278398 -0.02238938  0.5       )
							(-0.18922069 -0.02237699  0.5       )
							(-0.18564105 -0.02234538  0.5       )
							(-0.18204653 -0.0222946   0.5       )
							(-0.17843856 -0.02222469  0.5       )
							(-0.17481854 -0.0221357   0.5       )
							(-0.17118778 -0.0220277   0.5       )
							(-0.16754757 -0.02190074  0.5       )
							(-0.16389914 -0.02175491  0.5       )
							(-0.16024367 -0.02159029  0.5       )
							(-0.15658228 -0.02140697  0.5       )
							(-0.15291608 -0.02120505  0.5       )
							(-0.1492461  -0.02098466  0.5       )
							(-0.14557333 -0.02074594  0.5       )
							(-0.14189874 -0.02048902  0.5       )
							(-0.13822323 -0.02021407  0.5       )
							(-0.13454767 -0.01992127  0.5       )
							(-0.13087288 -0.01961082  0.5       )
							(-0.12719966 -0.01928294  0.5       )
							(-0.12352876 -0.01893787  0.5       )
							(-0.11986088 -0.01857586  0.5       )
							(-0.1161967 -0.0181972  0.5      )
							(-0.11253686 -0.0178022   0.5       )
							(-0.10888196 -0.01739118  0.5       )
							(-0.10523257 -0.01696449  0.5       )
							(-0.10158922 -0.01652253  0.5       )
							(-0.09795242 -0.0160657   0.5       )
							(-0.09432264 -0.01559445  0.5       )
							(-0.09070031 -0.01510923  0.5       )
							(-0.08708587 -0.01461056  0.5       )
							(-0.08347968 -0.01409896  0.5       )
							(-0.0798821  -0.01357501  0.5       )
							(-0.07629346 -0.0130393   0.5       )
							(-0.07271407 -0.01249246  0.5       )
							(-0.06914421 -0.01193517  0.5       )
							(-0.06558413 -0.01136815  0.5       )
							(-0.06203406 -0.01079213  0.5       )
							(-0.05849421 -0.01020791  0.5       )
							(-0.05496479 -0.00961632  0.5       )
							(-0.05144595 -0.00901823  0.5       )
							(-0.04793785 -0.00841455  0.5       )
							(-0.04444062 -0.00780624  0.5       )
							(-0.04095437 -0.0071943   0.5       )
							(-0.03747922 -0.00657979  0.5       )
							(-0.03401524 -0.0059638   0.5       )
							(-0.03056251 -0.00534748  0.5       )
							(-0.02712108 -0.00473202  0.5       )
							(-0.02369101 -0.00411866  0.5       )
							(-0.02027231 -0.00350872  0.5       )
							(-0.01686503 -0.00290353  0.5       )
							(-0.01346917 -0.0023045   0.5       )
							(-0.01008474 -0.00171309  0.5       )
							(-0.00671174 -0.00113081  0.5       )
							(-0.00335017 -0.00055924  0.5       )

						)
);

boundary
(
    down
    {
        type patch;
        faces
        (
            ( 8 10 11  9 )
        );
    }
    up
    {
        type patch;
        faces
        (
            ( 4 14 15  5 )
        );
    }
    right
    {
        type patch;
        faces
        (
            ( 10 12 13 11 )
            ( 12 14 15 13 )
        );
    }
    meanFlow
    {
        type patch;
        faces
        (
            ( 6  4  5  7)
            ( 6  8  9  7)
        );
    }

    surface
    {
        type wall;
        faces
        (
            ( 0  2  3  1)
            ( 0 16 17  1)
        );
    }
    interface1
    {
        type patch;
        faces
        (
            ( 2 12 13  3)
        );
    }

    interface2
    {
        type patch;
        faces
        (
            (16 12 13 17)
        );
    }
);

mergePatchPairs
(
    (interface1 interface2)
);
