/*---------------------------------*- C++ -*-----------------------------------*/
//    //////////////      ///////////////
//    //////////////      //////////////
//         ////           ////             /////       ////  //  /// //// ////
//         ////     ////  ///////////   ///    ///  ///    ///   ////  ///  ///
//  ////   ////           ///////////   ///    ///  ///    ///   ///   ///  ///
//   //// ////            ////          ///    ///  ///    ///   ///   ///  ///
//     /////              ////            /////       ///// ///  ///   ///  ///
/*---------------------------------*- C++ -*-----------------------------------*/

FoamFile
{
		version			2.0;
		format			ascii;
		class				dictionary;
		object			blockMeshDict;
}

// ***************************************************************************** //

scale				1;

vertices
(
		(-1.0 0.0 -0.5)	//	0
		(-1.0 0.0 0.5)	//	1
		(0.0 0.0 -0.5)	//	2
		(0.0 0.0 0.5)	//	3
		(8.0 25.0 -0.5)	//	4
		(8.0 25.0 0.5)	//	5
		(-26.248809496813376 0.0 -0.5)	//	6
		(-26.248809496813376 0.0 0.5)	//	7
		(8.0 -25.0 -0.5)	//	8
		(8.0 -25.0 0.5)	//	9
		(25.0 -25.0 -0.5)	//	10
		(25.0 -25.0 0.5)	//	11
		(25.0 0.0 -0.5)	//	12
		(25.0 0.0 0.5)	//	13
		(25.0 25.0 -0.5)	//	14
		(25.0 25.0 0.5)	//	15
		(0.0 0.0 -0.5)	//	16
		(0.0 0.0 0.5)	//	17
);

blocks
(
		hex ( 0  2  4  6  1  3  5  7 ) (80 70 1) edgeGrading (((.5 .5 10) (.5 .5 0.1))   0.1   0.1   ((.5 .5 10) (.5 .5 0.1)) 8000 800 800 8000 1 1 1 1) // 0
		hex ( 6  8 16  0  7  9 17  1 ) (80 70 1) edgeGrading (0.1   ((.5 .5 10) (.5 .5 0.1))   ((.5 .5 10) (.5 .5 0.1))   0.1 0.000125 0.00125 0.00125 0.000125 1 1 1 1) // 1
		hex ( 8 10 12 16  9 11 13 17 ) (80 70 1) edgeGrading ( 1 1200 1200 1 0.00125 0.04 0.04 0.00125 1 1 1 1 ) // 2
		hex ( 2 12 14  4  3 13 15  5 ) (80 70 1) edgeGrading ( 1200 1 1 1200 800 25 25 800 1 1 1 1 ) // 3
);

edges
(
		arc  4  6  (-15.475941393425684 21.20130274269139 -0.5)
		arc  5  7  (-15.475941393425684 21.20130274269139 0.5)
		arc  6  8  (-15.475941393425684 -21.20130274269139 -0.5)
		arc  7  9  (-15.475941393425684 -21.20130274269139 0.5)
		spline 0  2 (
							(-0.99966157  0.00323733 -0.5       )
							(-0.99866607  0.00638525 -0.5       )
							(-0.99704252  0.00944259 -0.5       )
							(-0.99481904  0.0124083  -0.5       )
							(-0.99202294  0.01528154 -0.5       )
							(-0.98868066  0.01806161 -0.5       )
							(-0.98481782  0.02074798 -0.5       )
							(-0.98045925  0.02334024 -0.5       )
							(-0.97562896  0.02583815 -0.5       )
							(-0.97035023  0.0282416  -0.5       )
							(-0.96464552  0.0305506  -0.5       )
							(-0.95853659  0.0327653  -0.5       )
							(-0.95204446  0.03488596 -0.5       )
							(-0.94518941  0.03691296 -0.5       )
							(-0.93799104  0.0388468  -0.5       )
							(-0.93046826  0.04068806 -0.5       )
							(-0.9226393   0.04243745 -0.5       )
							(-0.91452175  0.04409575 -0.5       )
							(-0.90613251  0.04566385 -0.5       )
							(-0.89748791  0.0471427  -0.5       )
							(-0.88860361  0.04853338 -0.5       )
							(-0.87949468  0.04983699 -0.5       )
							(-0.87017562  0.05105474 -0.5       )
							(-0.86066033  0.05218791 -0.5       )
							(-0.85096215  0.05323782 -0.5       )
							(-0.84109385  0.05420587 -0.5       )
							(-0.8310677   0.05509352 -0.5       )
							(-0.82089541  0.05590226 -0.5       )
							(-0.81058817  0.05663366 -0.5       )
							(-0.80015668  0.05728931 -0.5       )
							(-0.78961116  0.05787086 -0.5       )
							(-0.77896132  0.05837998 -0.5       )
							(-0.76821641  0.05881839 -0.5       )
							(-0.75738524  0.05918783 -0.5       )
							(-0.74647614  0.05949007 -0.5       )
							(-0.73549704  0.05972691 -0.5       )
							(-0.7244554   0.05990016 -0.5       )
							(-0.71335831  0.06001165 -0.5       )
							(-0.70221242  0.06006323 -0.5       )
							(-0.691024    0.06005675 -0.5       )
							(-0.67979893  0.05999406 -0.5       )
							(-0.66854271  0.05987704 -0.5       )
							(-0.65726048  0.05970753 -0.5       )
							(-0.64595701  0.0594874  -0.5       )
							(-0.63463673  0.0592185  -0.5       )
							(-0.62330374  0.05890265 -0.5       )
							(-0.61196177  0.05854169 -0.5       )
							(-0.60061426  0.05813741 -0.5       )
							(-0.58926432  0.05769159 -0.5       )
							(-0.57791476  0.05720599 -0.5       )
							(-0.56656808  0.05668234 -0.5       )
							(-0.55522648  0.05612232 -0.5       )
							(-0.5438919   0.05552759 -0.5       )
							(-0.53256597  0.05489977 -0.5       )
							(-0.52125006  0.05424042 -0.5       )
							(-0.50994527  0.05355106 -0.5       )
							(-0.49865244  0.05283317 -0.5       )
							(-0.48737216  0.05208815 -0.5       )
							(-0.47610476  0.05131736 -0.5       )
							(-0.46485033  0.05052209 -0.5       )
							(-0.45360874  0.04970354 -0.5       )
							(-0.44237958  0.04886288 -0.5       )
							(-0.43116226  0.04800115 -0.5       )
							(-0.41995594  0.04711935 -0.5       )
							(-0.40875956  0.04621837 -0.5       )
							(-0.39757185  0.04529902 -0.5       )
							(-0.38639132  0.04436201 -0.5       )
							(-0.37521627  0.04340794 -0.5       )
							(-0.36404479  0.04243732 -0.5       )
							(-0.35287479  0.04145053 -0.5       )
							(-0.34170394  0.04044784 -0.5       )
							(-0.33052975  0.0394294  -0.5       )
							(-0.31934949  0.03839524 -0.5       )
							(-0.30816028  0.03734523 -0.5       )
							(-0.29695902  0.03627914 -0.5       )
							(-0.28574241  0.03519654 -0.5       )
							(-0.27450698  0.03409691 -0.5       )
							(-0.26324906  0.03297952 -0.5       )
							(-0.25196479  0.0318435  -0.5       )
							(-0.24065011  0.03068781 -0.5       )
							(-0.22930078  0.02951122 -0.5       )
							(-0.21791237  0.02831233 -0.5       )
							(-0.20648025  0.02708953 -0.5       )
							(-0.19499961  0.02584102 -0.5       )
							(-0.18346543  0.02456479 -0.5       )
							(-0.17187251  0.02325862 -0.5       )
							(-0.16021544  0.02192006 -0.5       )
							(-0.14848861  0.02054644 -0.5       )
							(-0.13668623  0.01913484 -0.5       )
							(-0.12480227  0.01768209 -0.5       )
							(-0.11283052  0.01618478 -0.5       )
							(-0.10076455  0.01463921 -0.5       )
							(-0.0885977   0.01304143 -0.5       )
							(-0.07632312  0.01138719 -0.5       )
							(-0.06393372  0.00967194 -0.5       )
							(-0.05142218  0.00789086 -0.5       )
							(-0.03878094  0.00603877 -0.5       )
							(-0.02600223  0.0041102  -0.5       )
							(-0.01307801  0.00209933 -0.5       )

						)
		spline 1  3 (
							(-0.99966157  0.00323733  0.5       )
							(-0.99866607  0.00638525  0.5       )
							(-0.99704252  0.00944259  0.5       )
							(-0.99481904  0.0124083   0.5       )
							(-0.99202294  0.01528154  0.5       )
							(-0.98868066  0.01806161  0.5       )
							(-0.98481782  0.02074798  0.5       )
							(-0.98045925  0.02334024  0.5       )
							(-0.97562896  0.02583815  0.5       )
							(-0.97035023  0.0282416   0.5       )
							(-0.96464552  0.0305506   0.5       )
							(-0.95853659  0.0327653   0.5       )
							(-0.95204446  0.03488596  0.5       )
							(-0.94518941  0.03691296  0.5       )
							(-0.93799104  0.0388468   0.5       )
							(-0.93046826  0.04068806  0.5       )
							(-0.9226393   0.04243745  0.5       )
							(-0.91452175  0.04409575  0.5       )
							(-0.90613251  0.04566385  0.5       )
							(-0.89748791  0.0471427   0.5       )
							(-0.88860361  0.04853338  0.5       )
							(-0.87949468  0.04983699  0.5       )
							(-0.87017562  0.05105474  0.5       )
							(-0.86066033  0.05218791  0.5       )
							(-0.85096215  0.05323782  0.5       )
							(-0.84109385  0.05420587  0.5       )
							(-0.8310677   0.05509352  0.5       )
							(-0.82089541  0.05590226  0.5       )
							(-0.81058817  0.05663366  0.5       )
							(-0.80015668  0.05728931  0.5       )
							(-0.78961116  0.05787086  0.5       )
							(-0.77896132  0.05837998  0.5       )
							(-0.76821641  0.05881839  0.5       )
							(-0.75738524  0.05918783  0.5       )
							(-0.74647614  0.05949007  0.5       )
							(-0.73549704  0.05972691  0.5       )
							(-0.7244554   0.05990016  0.5       )
							(-0.71335831  0.06001165  0.5       )
							(-0.70221242  0.06006323  0.5       )
							(-0.691024    0.06005675  0.5       )
							(-0.67979893  0.05999406  0.5       )
							(-0.66854271  0.05987704  0.5       )
							(-0.65726048  0.05970753  0.5       )
							(-0.64595701  0.0594874   0.5       )
							(-0.63463673  0.0592185   0.5       )
							(-0.62330374  0.05890265  0.5       )
							(-0.61196177  0.05854169  0.5       )
							(-0.60061426  0.05813741  0.5       )
							(-0.58926432  0.05769159  0.5       )
							(-0.57791476  0.05720599  0.5       )
							(-0.56656808  0.05668234  0.5       )
							(-0.55522648  0.05612232  0.5       )
							(-0.5438919   0.05552759  0.5       )
							(-0.53256597  0.05489977  0.5       )
							(-0.52125006  0.05424042  0.5       )
							(-0.50994527  0.05355106  0.5       )
							(-0.49865244  0.05283317  0.5       )
							(-0.48737216  0.05208815  0.5       )
							(-0.47610476  0.05131736  0.5       )
							(-0.46485033  0.05052209  0.5       )
							(-0.45360874  0.04970354  0.5       )
							(-0.44237958  0.04886288  0.5       )
							(-0.43116226  0.04800115  0.5       )
							(-0.41995594  0.04711935  0.5       )
							(-0.40875956  0.04621837  0.5       )
							(-0.39757185  0.04529902  0.5       )
							(-0.38639132  0.04436201  0.5       )
							(-0.37521627  0.04340794  0.5       )
							(-0.36404479  0.04243732  0.5       )
							(-0.35287479  0.04145053  0.5       )
							(-0.34170394  0.04044784  0.5       )
							(-0.33052975  0.0394294   0.5       )
							(-0.31934949  0.03839524  0.5       )
							(-0.30816028  0.03734523  0.5       )
							(-0.29695902  0.03627914  0.5       )
							(-0.28574241  0.03519654  0.5       )
							(-0.27450698  0.03409691  0.5       )
							(-0.26324906  0.03297952  0.5       )
							(-0.25196479  0.0318435   0.5       )
							(-0.24065011  0.03068781  0.5       )
							(-0.22930078  0.02951122  0.5       )
							(-0.21791237  0.02831233  0.5       )
							(-0.20648025  0.02708953  0.5       )
							(-0.19499961  0.02584102  0.5       )
							(-0.18346543  0.02456479  0.5       )
							(-0.17187251  0.02325862  0.5       )
							(-0.16021544  0.02192006  0.5       )
							(-0.14848861  0.02054644  0.5       )
							(-0.13668623  0.01913484  0.5       )
							(-0.12480227  0.01768209  0.5       )
							(-0.11283052  0.01618478  0.5       )
							(-0.10076455  0.01463921  0.5       )
							(-0.0885977   0.01304143  0.5       )
							(-0.07632312  0.01138719  0.5       )
							(-0.06393372  0.00967194  0.5       )
							(-0.05142218  0.00789086  0.5       )
							(-0.03878094  0.00603877  0.5       )
							(-0.02600223  0.0041102   0.5       )
							(-0.01307801  0.00209933  0.5       )

						)
		spline 0 16 (
							(-0.99966157 -0.00323733 -0.5       )
							(-0.99866607 -0.00638525 -0.5       )
							(-0.99704252 -0.00944259 -0.5       )
							(-0.99481904 -0.0124083  -0.5       )
							(-0.99202294 -0.01528154 -0.5       )
							(-0.98868066 -0.01806161 -0.5       )
							(-0.98481782 -0.02074798 -0.5       )
							(-0.98045925 -0.02334024 -0.5       )
							(-0.97562896 -0.02583815 -0.5       )
							(-0.97035023 -0.0282416  -0.5       )
							(-0.96464552 -0.0305506  -0.5       )
							(-0.95853659 -0.0327653  -0.5       )
							(-0.95204446 -0.03488596 -0.5       )
							(-0.94518941 -0.03691296 -0.5       )
							(-0.93799104 -0.0388468  -0.5       )
							(-0.93046826 -0.04068806 -0.5       )
							(-0.9226393  -0.04243745 -0.5       )
							(-0.91452175 -0.04409575 -0.5       )
							(-0.90613251 -0.04566385 -0.5       )
							(-0.89748791 -0.0471427  -0.5       )
							(-0.88860361 -0.04853338 -0.5       )
							(-0.87949468 -0.04983699 -0.5       )
							(-0.87017562 -0.05105474 -0.5       )
							(-0.86066033 -0.05218791 -0.5       )
							(-0.85096215 -0.05323782 -0.5       )
							(-0.84109385 -0.05420587 -0.5       )
							(-0.8310677  -0.05509352 -0.5       )
							(-0.82089541 -0.05590226 -0.5       )
							(-0.81058817 -0.05663366 -0.5       )
							(-0.80015668 -0.05728931 -0.5       )
							(-0.78961116 -0.05787086 -0.5       )
							(-0.77896132 -0.05837998 -0.5       )
							(-0.76821641 -0.05881839 -0.5       )
							(-0.75738524 -0.05918783 -0.5       )
							(-0.74647614 -0.05949007 -0.5       )
							(-0.73549704 -0.05972691 -0.5       )
							(-0.7244554  -0.05990016 -0.5       )
							(-0.71335831 -0.06001165 -0.5       )
							(-0.70221242 -0.06006323 -0.5       )
							(-0.691024   -0.06005675 -0.5       )
							(-0.67979893 -0.05999406 -0.5       )
							(-0.66854271 -0.05987704 -0.5       )
							(-0.65726048 -0.05970753 -0.5       )
							(-0.64595701 -0.0594874  -0.5       )
							(-0.63463673 -0.0592185  -0.5       )
							(-0.62330374 -0.05890265 -0.5       )
							(-0.61196177 -0.05854169 -0.5       )
							(-0.60061426 -0.05813741 -0.5       )
							(-0.58926432 -0.05769159 -0.5       )
							(-0.57791476 -0.05720599 -0.5       )
							(-0.56656808 -0.05668234 -0.5       )
							(-0.55522648 -0.05612232 -0.5       )
							(-0.5438919  -0.05552759 -0.5       )
							(-0.53256597 -0.05489977 -0.5       )
							(-0.52125006 -0.05424042 -0.5       )
							(-0.50994527 -0.05355106 -0.5       )
							(-0.49865244 -0.05283317 -0.5       )
							(-0.48737216 -0.05208815 -0.5       )
							(-0.47610476 -0.05131736 -0.5       )
							(-0.46485033 -0.05052209 -0.5       )
							(-0.45360874 -0.04970354 -0.5       )
							(-0.44237958 -0.04886288 -0.5       )
							(-0.43116226 -0.04800115 -0.5       )
							(-0.41995594 -0.04711935 -0.5       )
							(-0.40875956 -0.04621837 -0.5       )
							(-0.39757185 -0.04529902 -0.5       )
							(-0.38639132 -0.04436201 -0.5       )
							(-0.37521627 -0.04340794 -0.5       )
							(-0.36404479 -0.04243732 -0.5       )
							(-0.35287479 -0.04145053 -0.5       )
							(-0.34170394 -0.04044784 -0.5       )
							(-0.33052975 -0.0394294  -0.5       )
							(-0.31934949 -0.03839524 -0.5       )
							(-0.30816028 -0.03734523 -0.5       )
							(-0.29695902 -0.03627914 -0.5       )
							(-0.28574241 -0.03519654 -0.5       )
							(-0.27450698 -0.03409691 -0.5       )
							(-0.26324906 -0.03297952 -0.5       )
							(-0.25196479 -0.0318435  -0.5       )
							(-0.24065011 -0.03068781 -0.5       )
							(-0.22930078 -0.02951122 -0.5       )
							(-0.21791237 -0.02831233 -0.5       )
							(-0.20648025 -0.02708953 -0.5       )
							(-0.19499961 -0.02584102 -0.5       )
							(-0.18346543 -0.02456479 -0.5       )
							(-0.17187251 -0.02325862 -0.5       )
							(-0.16021544 -0.02192006 -0.5       )
							(-0.14848861 -0.02054644 -0.5       )
							(-0.13668623 -0.01913484 -0.5       )
							(-0.12480227 -0.01768209 -0.5       )
							(-0.11283052 -0.01618478 -0.5       )
							(-0.10076455 -0.01463921 -0.5       )
							(-0.0885977  -0.01304143 -0.5       )
							(-0.07632312 -0.01138719 -0.5       )
							(-0.06393372 -0.00967194 -0.5       )
							(-0.05142218 -0.00789086 -0.5       )
							(-0.03878094 -0.00603877 -0.5       )
							(-0.02600223 -0.0041102  -0.5       )
							(-0.01307801 -0.00209933 -0.5       )

						)
		spline 1 17 (
							(-0.99966157 -0.00323733  0.5       )
							(-0.99866607 -0.00638525  0.5       )
							(-0.99704252 -0.00944259  0.5       )
							(-0.99481904 -0.0124083   0.5       )
							(-0.99202294 -0.01528154  0.5       )
							(-0.98868066 -0.01806161  0.5       )
							(-0.98481782 -0.02074798  0.5       )
							(-0.98045925 -0.02334024  0.5       )
							(-0.97562896 -0.02583815  0.5       )
							(-0.97035023 -0.0282416   0.5       )
							(-0.96464552 -0.0305506   0.5       )
							(-0.95853659 -0.0327653   0.5       )
							(-0.95204446 -0.03488596  0.5       )
							(-0.94518941 -0.03691296  0.5       )
							(-0.93799104 -0.0388468   0.5       )
							(-0.93046826 -0.04068806  0.5       )
							(-0.9226393  -0.04243745  0.5       )
							(-0.91452175 -0.04409575  0.5       )
							(-0.90613251 -0.04566385  0.5       )
							(-0.89748791 -0.0471427   0.5       )
							(-0.88860361 -0.04853338  0.5       )
							(-0.87949468 -0.04983699  0.5       )
							(-0.87017562 -0.05105474  0.5       )
							(-0.86066033 -0.05218791  0.5       )
							(-0.85096215 -0.05323782  0.5       )
							(-0.84109385 -0.05420587  0.5       )
							(-0.8310677  -0.05509352  0.5       )
							(-0.82089541 -0.05590226  0.5       )
							(-0.81058817 -0.05663366  0.5       )
							(-0.80015668 -0.05728931  0.5       )
							(-0.78961116 -0.05787086  0.5       )
							(-0.77896132 -0.05837998  0.5       )
							(-0.76821641 -0.05881839  0.5       )
							(-0.75738524 -0.05918783  0.5       )
							(-0.74647614 -0.05949007  0.5       )
							(-0.73549704 -0.05972691  0.5       )
							(-0.7244554  -0.05990016  0.5       )
							(-0.71335831 -0.06001165  0.5       )
							(-0.70221242 -0.06006323  0.5       )
							(-0.691024   -0.06005675  0.5       )
							(-0.67979893 -0.05999406  0.5       )
							(-0.66854271 -0.05987704  0.5       )
							(-0.65726048 -0.05970753  0.5       )
							(-0.64595701 -0.0594874   0.5       )
							(-0.63463673 -0.0592185   0.5       )
							(-0.62330374 -0.05890265  0.5       )
							(-0.61196177 -0.05854169  0.5       )
							(-0.60061426 -0.05813741  0.5       )
							(-0.58926432 -0.05769159  0.5       )
							(-0.57791476 -0.05720599  0.5       )
							(-0.56656808 -0.05668234  0.5       )
							(-0.55522648 -0.05612232  0.5       )
							(-0.5438919  -0.05552759  0.5       )
							(-0.53256597 -0.05489977  0.5       )
							(-0.52125006 -0.05424042  0.5       )
							(-0.50994527 -0.05355106  0.5       )
							(-0.49865244 -0.05283317  0.5       )
							(-0.48737216 -0.05208815  0.5       )
							(-0.47610476 -0.05131736  0.5       )
							(-0.46485033 -0.05052209  0.5       )
							(-0.45360874 -0.04970354  0.5       )
							(-0.44237958 -0.04886288  0.5       )
							(-0.43116226 -0.04800115  0.5       )
							(-0.41995594 -0.04711935  0.5       )
							(-0.40875956 -0.04621837  0.5       )
							(-0.39757185 -0.04529902  0.5       )
							(-0.38639132 -0.04436201  0.5       )
							(-0.37521627 -0.04340794  0.5       )
							(-0.36404479 -0.04243732  0.5       )
							(-0.35287479 -0.04145053  0.5       )
							(-0.34170394 -0.04044784  0.5       )
							(-0.33052975 -0.0394294   0.5       )
							(-0.31934949 -0.03839524  0.5       )
							(-0.30816028 -0.03734523  0.5       )
							(-0.29695902 -0.03627914  0.5       )
							(-0.28574241 -0.03519654  0.5       )
							(-0.27450698 -0.03409691  0.5       )
							(-0.26324906 -0.03297952  0.5       )
							(-0.25196479 -0.0318435   0.5       )
							(-0.24065011 -0.03068781  0.5       )
							(-0.22930078 -0.02951122  0.5       )
							(-0.21791237 -0.02831233  0.5       )
							(-0.20648025 -0.02708953  0.5       )
							(-0.19499961 -0.02584102  0.5       )
							(-0.18346543 -0.02456479  0.5       )
							(-0.17187251 -0.02325862  0.5       )
							(-0.16021544 -0.02192006  0.5       )
							(-0.14848861 -0.02054644  0.5       )
							(-0.13668623 -0.01913484  0.5       )
							(-0.12480227 -0.01768209  0.5       )
							(-0.11283052 -0.01618478  0.5       )
							(-0.10076455 -0.01463921  0.5       )
							(-0.0885977  -0.01304143  0.5       )
							(-0.07632312 -0.01138719  0.5       )
							(-0.06393372 -0.00967194  0.5       )
							(-0.05142218 -0.00789086  0.5       )
							(-0.03878094 -0.00603877  0.5       )
							(-0.02600223 -0.0041102   0.5       )
							(-0.01307801 -0.00209933  0.5       )

						)
);

boundary
(
    inOut
    {
        type patch;
        faces
        (
            ( 6  4  5  7)
            ( 6  8  9  7)
            ( 10 12 13 11 )
            ( 12 14 15 13 )
            ( 4 14 15  5 )
            ( 8 10 11  9 )
        );
    }

    surface
    {
        type wall;
        faces
        (
            ( 0  2  3  1)
            ( 0 16 17  1)
        );
    }
    interface1
    {
        type patch;
        faces
        (
            ( 2 12 13  3)
        );
    }

    interface2
    {
        type patch;
        faces
        (
            (16 12 13 17)
        );
    }
);

mergePatchPairs
(
    (interface1 interface2)
);
