/*---------------------------------*- C++ -*-----------------------------------*/
//    //////////////      ///////////////
//    //////////////      //////////////
//         ////           ////             /////       ////  //  /// //// ////
//         ////     ////  ///////////   ///    ///  ///    ///   ////  ///  ///
//  ////   ////           ///////////   ///    ///  ///    ///   ///   ///  ///
//   //// ////            ////          ///    ///  ///    ///   ///   ///  ///
//     /////              ////            /////       ///// ///  ///   ///  ///
/*---------------------------------*- C++ -*-----------------------------------*/

FoamFile
{
		version			2.0;
		format			ascii;
		class				dictionary;
		object			blockMeshDict;
}

// ***************************************************************************** //

scale				1;

vertices
(
		(-0.3 0.0 -0.5)	//	0
		(-0.3 0.0 0.5)	//	1
		(0.0 0.0 -0.5)	//	2
		(0.0 0.0 0.5)	//	3
		(0.0 3.0 -0.5)	//	4
		(0.0 3.0 0.5)	//	5
		(-3.0 0.0 -0.5)	//	6
		(-3.0 0.0 0.5)	//	7
		(0.0 -3.0 -0.5)	//	8
		(0.0 -3.0 0.5)	//	9
		(3.0 -3.0 -0.5)	//	10
		(3.0 -3.0 0.5)	//	11
		(3.0 0.0 -0.5)	//	12
		(3.0 0.0 0.5)	//	13
		(3.0 3.0 -0.5)	//	14
		(3.0 3.0 0.5)	//	15
		(0.0 0.0 -0.5)	//	16
		(0.0 0.0 0.5)	//	17
);

blocks
(
		hex ( 0  2  4  6  1  3  5  7 ) (120 40 1) edgeGrading (5   1   1  5 1000 1000 1000 1000 1 1 1 1) // 0
		hex ( 6  8 16  0  7  9 17  1 ) (120 40 1) edgeGrading ( 1  5  5   1 0.001 0.001 0.001 0.001 1 1 1 1) // 1
		hex ( 8 10 12 16  9 11 13 17 ) (60 40 1) simpleGrading ( 200 0.001 1) // 1
		hex ( 2 12 14  4  3 13 15  5 ) (60 40 1) simpleGrading ( 200 1000 1) // 1
);

edges
(
		arc  4  6  90.0  (0 0 1)
		arc  5  7  90.0  (0 0 1)
		arc  6  8  90.0  (0 0 1)
		arc  7  9  90.0  (0 0 1)
		spline 0  2 (
							(-0.29989081  0.00084111 -0.5       )
							(-0.29957233  0.0016444  -0.5       )
							(-0.29905775  0.00241181 -0.5       )
							(-0.29835963  0.00314519 -0.5       )
							(-0.29748997  0.00384633 -0.5       )
							(-0.29646018  0.00451694 -0.5       )
							(-0.29528111  0.00515866 -0.5       )
							(-0.29396308  0.00577307 -0.5       )
							(-0.29251586  0.00636167 -0.5       )
							(-0.29094874  0.0069259  -0.5       )
							(-0.28927049  0.00746711 -0.5       )
							(-0.28748938  0.00798662 -0.5       )
							(-0.28561324  0.00848566 -0.5       )
							(-0.28364943  0.0089654  -0.5       )
							(-0.28160487  0.00942694 -0.5       )
							(-0.27948605  0.00987132 -0.5       )
							(-0.27729905  0.01029953 -0.5       )
							(-0.27504954  0.01071249 -0.5       )
							(-0.27274282  0.01111105 -0.5       )
							(-0.2703838   0.01149602 -0.5       )
							(-0.26797704  0.01186812 -0.5       )
							(-0.26552673  0.01222806 -0.5       )
							(-0.26303675  0.01257645 -0.5       )
							(-0.26051064  0.01291387 -0.5       )
							(-0.25795165  0.01324084 -0.5       )
							(-0.25536271  0.01355782 -0.5       )
							(-0.25274647  0.01386523 -0.5       )
							(-0.25010532  0.01416343 -0.5       )
							(-0.24744136  0.01445273 -0.5       )
							(-0.24475646  0.01473341 -0.5       )
							(-0.24205226  0.01500567 -0.5       )
							(-0.23933014  0.0152697  -0.5       )
							(-0.23659129  0.01552563 -0.5       )
							(-0.23383669  0.01577354 -0.5       )
							(-0.23106711  0.01601347 -0.5       )
							(-0.22828316  0.01624543 -0.5       )
							(-0.22548527  0.01646938 -0.5       )
							(-0.22267369  0.01668526 -0.5       )
							(-0.21984853  0.01689295 -0.5       )
							(-0.21700976  0.0170923  -0.5       )
							(-0.21415722  0.01728315 -0.5       )
							(-0.21129061  0.01746528 -0.5       )
							(-0.20840954  0.01763845 -0.5       )
							(-0.2055135   0.01780239 -0.5       )
							(-0.20260189  0.01795681 -0.5       )
							(-0.19967403  0.01810138 -0.5       )
							(-0.19672916  0.01823575 -0.5       )
							(-0.19376645  0.01835956 -0.5       )
							(-0.19078501  0.01847242 -0.5       )
							(-0.18778392  0.01857391 -0.5       )
							(-0.18476219  0.0186636  -0.5       )
							(-0.18171881  0.01874105 -0.5       )
							(-0.17865275  0.0188058  -0.5       )
							(-0.17556296  0.01885737 -0.5       )
							(-0.17244838  0.01889529 -0.5       )
							(-0.16930793  0.01891905 -0.5       )
							(-0.16614058  0.01892815 -0.5       )
							(-0.16294527  0.01892209 -0.5       )
							(-0.15972097  0.01890036 -0.5       )
							(-0.1564667   0.01886244 -0.5       )
							(-0.15318148  0.0188078  -0.5       )
							(-0.14986441  0.01873595 -0.5       )
							(-0.1465146   0.01864637 -0.5       )
							(-0.14313123  0.01853856 -0.5       )
							(-0.13971354  0.018412   -0.5       )
							(-0.13626085  0.01826623 -0.5       )
							(-0.13277252  0.01810074 -0.5       )
							(-0.12924802  0.01791509 -0.5       )
							(-0.12568688  0.01770882 -0.5       )
							(-0.12208874  0.01748149 -0.5       )
							(-0.1184533   0.01723268 -0.5       )
							(-0.11478041  0.01696201 -0.5       )
							(-0.11106998  0.01666911 -0.5       )
							(-0.10732204  0.01635361 -0.5       )
							(-0.10353675  0.01601522 -0.5       )
							(-0.09971438  0.01565363 -0.5       )
							(-0.09585532  0.01526858 -0.5       )
							(-0.09196008  0.01485986 -0.5       )
							(-0.08802931  0.01442728 -0.5       )
							(-0.0840638   0.01397068 -0.5       )
							(-0.08006448  0.01348996 -0.5       )
							(-0.0760324   0.01298504 -0.5       )
							(-0.07196877  0.0124559  -0.5       )
							(-0.06787496  0.01190258 -0.5       )
							(-0.06375249  0.01132514 -0.5       )
							(-0.05960301  0.01072372 -0.5       )
							(-0.05542835  0.01009848 -0.5       )
							(-0.05123051  0.00944967 -0.5       )
							(-0.04701163  0.00877759 -0.5       )
							(-0.04277402  0.0080826  -0.5       )
							(-0.03852017  0.00736511 -0.5       )
							(-0.03425274  0.00662561 -0.5       )
							(-0.02997454  0.00586467 -0.5       )
							(-0.02568858  0.00508291 -0.5       )
							(-0.02139804  0.00428103 -0.5       )
							(-0.01710625  0.00345982 -0.5       )
							(-0.01281676  0.00262012 -0.5       )
							(-0.00853327  0.00176289 -0.5       )
							(-0.00425966  0.00088915 -0.5       )

						)
		spline 1  3 (
							(-0.29989081  0.00084111  0.5       )
							(-0.29957233  0.0016444   0.5       )
							(-0.29905775  0.00241181  0.5       )
							(-0.29835963  0.00314519  0.5       )
							(-0.29748997  0.00384633  0.5       )
							(-0.29646018  0.00451694  0.5       )
							(-0.29528111  0.00515866  0.5       )
							(-0.29396308  0.00577307  0.5       )
							(-0.29251586  0.00636167  0.5       )
							(-0.29094874  0.0069259   0.5       )
							(-0.28927049  0.00746711  0.5       )
							(-0.28748938  0.00798662  0.5       )
							(-0.28561324  0.00848566  0.5       )
							(-0.28364943  0.0089654   0.5       )
							(-0.28160487  0.00942694  0.5       )
							(-0.27948605  0.00987132  0.5       )
							(-0.27729905  0.01029953  0.5       )
							(-0.27504954  0.01071249  0.5       )
							(-0.27274282  0.01111105  0.5       )
							(-0.2703838   0.01149602  0.5       )
							(-0.26797704  0.01186812  0.5       )
							(-0.26552673  0.01222806  0.5       )
							(-0.26303675  0.01257645  0.5       )
							(-0.26051064  0.01291387  0.5       )
							(-0.25795165  0.01324084  0.5       )
							(-0.25536271  0.01355782  0.5       )
							(-0.25274647  0.01386523  0.5       )
							(-0.25010532  0.01416343  0.5       )
							(-0.24744136  0.01445273  0.5       )
							(-0.24475646  0.01473341  0.5       )
							(-0.24205226  0.01500567  0.5       )
							(-0.23933014  0.0152697   0.5       )
							(-0.23659129  0.01552563  0.5       )
							(-0.23383669  0.01577354  0.5       )
							(-0.23106711  0.01601347  0.5       )
							(-0.22828316  0.01624543  0.5       )
							(-0.22548527  0.01646938  0.5       )
							(-0.22267369  0.01668526  0.5       )
							(-0.21984853  0.01689295  0.5       )
							(-0.21700976  0.0170923   0.5       )
							(-0.21415722  0.01728315  0.5       )
							(-0.21129061  0.01746528  0.5       )
							(-0.20840954  0.01763845  0.5       )
							(-0.2055135   0.01780239  0.5       )
							(-0.20260189  0.01795681  0.5       )
							(-0.19967403  0.01810138  0.5       )
							(-0.19672916  0.01823575  0.5       )
							(-0.19376645  0.01835956  0.5       )
							(-0.19078501  0.01847242  0.5       )
							(-0.18778392  0.01857391  0.5       )
							(-0.18476219  0.0186636   0.5       )
							(-0.18171881  0.01874105  0.5       )
							(-0.17865275  0.0188058   0.5       )
							(-0.17556296  0.01885737  0.5       )
							(-0.17244838  0.01889529  0.5       )
							(-0.16930793  0.01891905  0.5       )
							(-0.16614058  0.01892815  0.5       )
							(-0.16294527  0.01892209  0.5       )
							(-0.15972097  0.01890036  0.5       )
							(-0.1564667   0.01886244  0.5       )
							(-0.15318148  0.0188078   0.5       )
							(-0.14986441  0.01873595  0.5       )
							(-0.1465146   0.01864637  0.5       )
							(-0.14313123  0.01853856  0.5       )
							(-0.13971354  0.018412    0.5       )
							(-0.13626085  0.01826623  0.5       )
							(-0.13277252  0.01810074  0.5       )
							(-0.12924802  0.01791509  0.5       )
							(-0.12568688  0.01770882  0.5       )
							(-0.12208874  0.01748149  0.5       )
							(-0.1184533   0.01723268  0.5       )
							(-0.11478041  0.01696201  0.5       )
							(-0.11106998  0.01666911  0.5       )
							(-0.10732204  0.01635361  0.5       )
							(-0.10353675  0.01601522  0.5       )
							(-0.09971438  0.01565363  0.5       )
							(-0.09585532  0.01526858  0.5       )
							(-0.09196008  0.01485986  0.5       )
							(-0.08802931  0.01442728  0.5       )
							(-0.0840638   0.01397068  0.5       )
							(-0.08006448  0.01348996  0.5       )
							(-0.0760324   0.01298504  0.5       )
							(-0.07196877  0.0124559   0.5       )
							(-0.06787496  0.01190258  0.5       )
							(-0.06375249  0.01132514  0.5       )
							(-0.05960301  0.01072372  0.5       )
							(-0.05542835  0.01009848  0.5       )
							(-0.05123051  0.00944967  0.5       )
							(-0.04701163  0.00877759  0.5       )
							(-0.04277402  0.0080826   0.5       )
							(-0.03852017  0.00736511  0.5       )
							(-0.03425274  0.00662561  0.5       )
							(-0.02997454  0.00586467  0.5       )
							(-0.02568858  0.00508291  0.5       )
							(-0.02139804  0.00428103  0.5       )
							(-0.01710625  0.00345982  0.5       )
							(-0.01281676  0.00262012  0.5       )
							(-0.00853327  0.00176289  0.5       )
							(-0.00425966  0.00088915  0.5       )

						)
		spline 0 16 (
							(-0.29988723 -0.00077516 -0.5       )
							(-0.29955884 -0.00152527 -0.5       )
							(-0.29902916 -0.00225135 -0.5       )
							(-0.29831185 -0.00295437 -0.5       )
							(-0.29741992 -0.00363524 -0.5       )
							(-0.29636574 -0.00429481 -0.5       )
							(-0.29516105 -0.00493389 -0.5       )
							(-0.293817   -0.00555323 -0.5       )
							(-0.29234414 -0.00615354 -0.5       )
							(-0.29075244 -0.00673546 -0.5       )
							(-0.28905134 -0.00729959 -0.5       )
							(-0.28724971 -0.00784648 -0.5       )
							(-0.28535593 -0.00837664 -0.5       )
							(-0.28337783 -0.00889052 -0.5       )
							(-0.28132278 -0.00938853 -0.5       )
							(-0.27919768 -0.00987104 -0.5       )
							(-0.27700893 -0.01033836 -0.5       )
							(-0.27476252 -0.01079078 -0.5       )
							(-0.272464   -0.01122852 -0.5       )
							(-0.27011848 -0.01165178 -0.5       )
							(-0.26773071 -0.01206072 -0.5       )
							(-0.26530502 -0.01245545 -0.5       )
							(-0.26284538 -0.01283606 -0.5       )
							(-0.2603554  -0.01320258 -0.5       )
							(-0.25783834 -0.01355504 -0.5       )
							(-0.25529714 -0.0138934  -0.5       )
							(-0.2527344  -0.01421763 -0.5       )
							(-0.25015244 -0.01452763 -0.5       )
							(-0.24755327 -0.01482331 -0.5       )
							(-0.24493865 -0.01510452 -0.5       )
							(-0.24231004 -0.01537111 -0.5       )
							(-0.23966866 -0.0156229  -0.5       )
							(-0.23701551 -0.0158597  -0.5       )
							(-0.23435133 -0.01608127 -0.5       )
							(-0.23167667 -0.01628739 -0.5       )
							(-0.22899186 -0.01647781 -0.5       )
							(-0.22629705 -0.01665226 -0.5       )
							(-0.2235922  -0.01681048 -0.5       )
							(-0.22087712 -0.01695219 -0.5       )
							(-0.21815143 -0.01707709 -0.5       )
							(-0.21541465 -0.0171849  -0.5       )
							(-0.21266611 -0.01727532 -0.5       )
							(-0.20990507 -0.01734807 -0.5       )
							(-0.20713064 -0.01740286 -0.5       )
							(-0.20434184 -0.01743941 -0.5       )
							(-0.2015376  -0.01745744 -0.5       )
							(-0.19871675 -0.01745669 -0.5       )
							(-0.19587808 -0.01743691 -0.5       )
							(-0.19302028 -0.01739786 -0.5       )
							(-0.19014201 -0.01733933 -0.5       )
							(-0.18724188 -0.01726113 -0.5       )
							(-0.18431846 -0.01716308 -0.5       )
							(-0.18137031 -0.01704504 -0.5       )
							(-0.17839596 -0.0169069  -0.5       )
							(-0.17539392 -0.01674857 -0.5       )
							(-0.17236273 -0.01657    -0.5       )
							(-0.16930092 -0.0163712  -0.5       )
							(-0.16620703 -0.01615218 -0.5       )
							(-0.16307965 -0.01591304 -0.5       )
							(-0.15991738 -0.01565389 -0.5       )
							(-0.15671888 -0.01537491 -0.5       )
							(-0.15348283 -0.01507633 -0.5       )
							(-0.15020798 -0.01475844 -0.5       )
							(-0.14689317 -0.01442158 -0.5       )
							(-0.14353726 -0.01406618 -0.5       )
							(-0.14013922 -0.0136927  -0.5       )
							(-0.13669809 -0.01330171 -0.5       )
							(-0.133213   -0.01289382 -0.5       )
							(-0.12968319 -0.01246973 -0.5       )
							(-0.12610798 -0.01203025 -0.5       )
							(-0.1224868  -0.01157622 -0.5       )
							(-0.11881922 -0.01110862 -0.5       )
							(-0.1151049  -0.01062849 -0.5       )
							(-0.11134363 -0.01013699 -0.5       )
							(-0.10753535 -0.00963536 -0.5       )
							(-0.1036801  -0.00912496 -0.5       )
							(-0.09977809 -0.00860724 -0.5       )
							(-0.09582965 -0.00808379 -0.5       )
							(-0.09183529 -0.00755629 -0.5       )
							(-0.08779565 -0.00702656 -0.5       )
							(-0.08371153 -0.00649652 -0.5       )
							(-0.07958389 -0.00596825 -0.5       )
							(-0.07541387 -0.00544394 -0.5       )
							(-0.07120275 -0.00492593 -0.5       )
							(-0.06695203 -0.00441669 -0.5       )
							(-0.06266333 -0.00391884 -0.5       )
							(-0.0583385  -0.00343516 -0.5       )
							(-0.05397953 -0.00296857 -0.5       )
							(-0.04958862 -0.00252216 -0.5       )
							(-0.04516815 -0.00209919 -0.5       )
							(-0.04072069 -0.00170306 -0.5       )
							(-0.03624901 -0.00133738 -0.5       )
							(-0.03175606 -0.00100592 -0.5       )
							(-0.027245   -0.00071262 -0.5       )
							(-2.27191754e-02 -4.61632274e-04 -5.00000000e-01)
							(-1.81821408e-02 -2.57285807e-04 -5.00000000e-01)
							(-1.36376490e-02 -1.04112281e-04 -5.00000000e-01)
							(-9.08965506e-03 -6.84462745e-06 -5.00000000e-01)
							(-4.54231774e-03  2.95769638e-05 -5.00000000e-01)

						)
		spline 1 17 (
							(-0.29988723 -0.00077516  0.5       )
							(-0.29955884 -0.00152527  0.5       )
							(-0.29902916 -0.00225135  0.5       )
							(-0.29831185 -0.00295437  0.5       )
							(-0.29741992 -0.00363524  0.5       )
							(-0.29636574 -0.00429481  0.5       )
							(-0.29516105 -0.00493389  0.5       )
							(-0.293817   -0.00555323  0.5       )
							(-0.29234414 -0.00615354  0.5       )
							(-0.29075244 -0.00673546  0.5       )
							(-0.28905134 -0.00729959  0.5       )
							(-0.28724971 -0.00784648  0.5       )
							(-0.28535593 -0.00837664  0.5       )
							(-0.28337783 -0.00889052  0.5       )
							(-0.28132278 -0.00938853  0.5       )
							(-0.27919768 -0.00987104  0.5       )
							(-0.27700893 -0.01033836  0.5       )
							(-0.27476252 -0.01079078  0.5       )
							(-0.272464   -0.01122852  0.5       )
							(-0.27011848 -0.01165178  0.5       )
							(-0.26773071 -0.01206072  0.5       )
							(-0.26530502 -0.01245545  0.5       )
							(-0.26284538 -0.01283606  0.5       )
							(-0.2603554  -0.01320258  0.5       )
							(-0.25783834 -0.01355504  0.5       )
							(-0.25529714 -0.0138934   0.5       )
							(-0.2527344  -0.01421763  0.5       )
							(-0.25015244 -0.01452763  0.5       )
							(-0.24755327 -0.01482331  0.5       )
							(-0.24493865 -0.01510452  0.5       )
							(-0.24231004 -0.01537111  0.5       )
							(-0.23966866 -0.0156229   0.5       )
							(-0.23701551 -0.0158597   0.5       )
							(-0.23435133 -0.01608127  0.5       )
							(-0.23167667 -0.01628739  0.5       )
							(-0.22899186 -0.01647781  0.5       )
							(-0.22629705 -0.01665226  0.5       )
							(-0.2235922  -0.01681048  0.5       )
							(-0.22087712 -0.01695219  0.5       )
							(-0.21815143 -0.01707709  0.5       )
							(-0.21541465 -0.0171849   0.5       )
							(-0.21266611 -0.01727532  0.5       )
							(-0.20990507 -0.01734807  0.5       )
							(-0.20713064 -0.01740286  0.5       )
							(-0.20434184 -0.01743941  0.5       )
							(-0.2015376  -0.01745744  0.5       )
							(-0.19871675 -0.01745669  0.5       )
							(-0.19587808 -0.01743691  0.5       )
							(-0.19302028 -0.01739786  0.5       )
							(-0.19014201 -0.01733933  0.5       )
							(-0.18724188 -0.01726113  0.5       )
							(-0.18431846 -0.01716308  0.5       )
							(-0.18137031 -0.01704504  0.5       )
							(-0.17839596 -0.0169069   0.5       )
							(-0.17539392 -0.01674857  0.5       )
							(-0.17236273 -0.01657     0.5       )
							(-0.16930092 -0.0163712   0.5       )
							(-0.16620703 -0.01615218  0.5       )
							(-0.16307965 -0.01591304  0.5       )
							(-0.15991738 -0.01565389  0.5       )
							(-0.15671888 -0.01537491  0.5       )
							(-0.15348283 -0.01507633  0.5       )
							(-0.15020798 -0.01475844  0.5       )
							(-0.14689317 -0.01442158  0.5       )
							(-0.14353726 -0.01406618  0.5       )
							(-0.14013922 -0.0136927   0.5       )
							(-0.13669809 -0.01330171  0.5       )
							(-0.133213   -0.01289382  0.5       )
							(-0.12968319 -0.01246973  0.5       )
							(-0.12610798 -0.01203025  0.5       )
							(-0.1224868  -0.01157622  0.5       )
							(-0.11881922 -0.01110862  0.5       )
							(-0.1151049  -0.01062849  0.5       )
							(-0.11134363 -0.01013699  0.5       )
							(-0.10753535 -0.00963536  0.5       )
							(-0.1036801  -0.00912496  0.5       )
							(-0.09977809 -0.00860724  0.5       )
							(-0.09582965 -0.00808379  0.5       )
							(-0.09183529 -0.00755629  0.5       )
							(-0.08779565 -0.00702656  0.5       )
							(-0.08371153 -0.00649652  0.5       )
							(-0.07958389 -0.00596825  0.5       )
							(-0.07541387 -0.00544394  0.5       )
							(-0.07120275 -0.00492593  0.5       )
							(-0.06695203 -0.00441669  0.5       )
							(-0.06266333 -0.00391884  0.5       )
							(-0.0583385  -0.00343516  0.5       )
							(-0.05397953 -0.00296857  0.5       )
							(-0.04958862 -0.00252216  0.5       )
							(-0.04516815 -0.00209919  0.5       )
							(-0.04072069 -0.00170306  0.5       )
							(-0.03624901 -0.00133738  0.5       )
							(-0.03175606 -0.00100592  0.5       )
							(-0.027245   -0.00071262  0.5       )
							(-2.27191754e-02 -4.61632274e-04  5.00000000e-01)
							(-1.81821408e-02 -2.57285807e-04  5.00000000e-01)
							(-1.36376490e-02 -1.04112281e-04  5.00000000e-01)
							(-9.08965506e-03 -6.84462745e-06  5.00000000e-01)
							(-4.54231774e-03  2.95769638e-05  5.00000000e-01)

						)
);

boundary
(
    down
    {
        type patch;
        faces
        (
            ( 8 10 11  9 )
        );
    }
    up
    {
        type patch;
        faces
        (
            ( 4 14 15  5 )
        );
    }
    right
    {
        type patch;
        faces
        (
            ( 10 12 13 11 )
            ( 12 14 15 13 )
        );
    }
    meanFlow
    {
        type patch;
        faces
        (
            ( 6  4  5  7)
            ( 6  8  9  7)
        );
    }

    surface
    {
        type wall;
        faces
        (
            ( 0  2  3  1)
            ( 0 16 17  1)
        );
    }
    interface1
    {
        type patch;
        faces
        (
            ( 2 12 13  3)
        );
    }

    interface2
    {
        type patch;
        faces
        (
            (16 12 13 17)
        );
    }
);

mergePatchPairs
(
    (interface1 interface2)
);
