/*---------------------------------*- C++ -*-----------------------------------*/
//    //////////////      ///////////////
//    //////////////      //////////////
//         ////           ////             /////       ////  //  /// //// ////
//         ////     ////  ///////////   ///    ///  ///    ///   ////  ///  ///
//  ////   ////           ///////////   ///    ///  ///    ///   ///   ///  ///
//   //// ////            ////          ///    ///  ///    ///   ///   ///  ///
//     /////              ////            /////       ///// ///  ///   ///  ///
/*---------------------------------*- C++ -*-----------------------------------*/

FoamFile
{
		version			2.0;
		format			ascii;
		class				dictionary;
		object			blockMeshDict;
}

// ***************************************************************************** //

scale				1;

vertices
(
		(-1.0 0.0 -0.5)	//	0
		(-1.0 0.0 0.5)	//	1
		(0.0 0.0 -0.5)	//	2
		(0.0 0.0 0.5)	//	3
		(8.0 25.0 -0.5)	//	4
		(8.0 25.0 0.5)	//	5
		(-26.248809496813376 0.0 -0.5)	//	6
		(-26.248809496813376 0.0 0.5)	//	7
		(8.0 -25.0 -0.5)	//	8
		(8.0 -25.0 0.5)	//	9
		(25.0 -25.0 -0.5)	//	10
		(25.0 -25.0 0.5)	//	11
		(25.0 0.0 -0.5)	//	12
		(25.0 0.0 0.5)	//	13
		(25.0 25.0 -0.5)	//	14
		(25.0 25.0 0.5)	//	15
		(0.0 0.0 -0.5)	//	16
		(0.0 0.0 0.5)	//	17
);

blocks
(
		hex ( 0  2  4  6  1  3  5  7 ) (50 70 1) edgeGrading (((.5 .5 10) (.5 .5 0.1))   0.1   0.1   ((.5 .5 10) (.5 .5 0.1)) 8000 800 800 8000 1 1 1 1) // 0
		hex ( 6  8 16  0  7  9 17  1 ) (50 70 1) edgeGrading (0.1   ((.5 .5 10) (.5 .5 0.1))   ((.5 .5 10) (.5 .5 0.1))   0.1 0.000125 0.00125 0.00125 0.000125 1 1 1 1) // 1
		hex ( 8 10 12 16  9 11 13 17 ) (50 70 1) edgeGrading ( 1 1200 1200 1 0.00125 0.04 0.04 0.00125 1 1 1 1 ) // 2
		hex ( 2 12 14  4  3 13 15  5 ) (50 70 1) edgeGrading ( 1200 1 1 1200 800 25 25 800 1 1 1 1 ) // 3
);

edges
(
		arc  4  6  (-15.475941393425684 21.20130274269139 -0.5)
		arc  5  7  (-15.475941393425684 21.20130274269139 0.5)
		arc  6  8  (-15.475941393425684 -21.20130274269139 -0.5)
		arc  7  9  (-15.475941393425684 -21.20130274269139 0.5)
		spline 0  2 (
							(-0.99961056  0.0038486  -0.5       )
							(-0.99847251  0.00761757 -0.5       )
							(-0.99663005  0.01130099 -0.5       )
							(-0.99412571  0.01489359 -0.5       )
							(-0.9910004   0.01839073 -0.5       )
							(-0.98729346  0.02178834 -0.5       )
							(-0.98304264  0.02508293 -0.5       )
							(-0.97828415  0.0282715  -0.5       )
							(-0.9730527  0.0313516 -0.5      )
							(-0.96738149  0.03432121 -0.5       )
							(-0.96130226  0.03717879 -0.5       )
							(-0.95484533  0.0399232  -0.5       )
							(-0.94803959  0.04255371 -0.5       )
							(-0.94091256  0.04506995 -0.5       )
							(-0.9334904   0.04747191 -0.5       )
							(-0.92579793  0.0497599  -0.5       )
							(-0.91785868  0.0519345  -0.5       )
							(-0.9096949   0.05399662 -0.5       )
							(-0.90132758  0.05594739 -0.5       )
							(-0.89277651  0.05778819 -0.5       )
							(-0.88406027  0.05952059 -0.5       )
							(-0.87519627  0.06114638 -0.5       )
							(-0.86620079  0.06266752 -0.5       )
							(-0.85708898  0.06408611 -0.5       )
							(-0.84787494  0.0654044  -0.5       )
							(-0.83857168  0.06662475 -0.5       )
							(-0.82919119  0.06774963 -0.5       )
							(-0.81974447  0.0687816  -0.5       )
							(-0.81024153  0.06972326 -0.5       )
							(-0.80069146  0.07057729 -0.5       )
							(-0.79110239  0.07134641 -0.5       )
							(-0.78148162  0.07203334 -0.5       )
							(-0.77183553  0.07264084 -0.5       )
							(-0.76216972  0.07317165 -0.5       )
							(-0.75248896  0.0736285  -0.5       )
							(-0.74279724  0.07401409 -0.5       )
							(-0.73309782  0.07433109 -0.5       )
							(-0.72339324  0.0745821  -0.5       )
							(-0.71368536  0.07476969 -0.5       )
							(-0.70397536  0.07489634 -0.5       )
							(-0.69426381  0.07496446 -0.5       )
							(-0.68455068  0.07497638 -0.5       )
							(-0.67483535  0.07493432 -0.5       )
							(-0.66511669  0.07484042 -0.5       )
							(-0.65539302  0.0746967  -0.5       )
							(-0.64566222  0.07450506 -0.5       )
							(-0.63592168  0.07426729 -0.5       )
							(-0.62616839  0.07398507 -0.5       )
							(-0.61639894  0.07365992 -0.5       )
							(-0.60660957  0.07329325 -0.5       )
							(-0.59679617  0.07288633 -0.5       )
							(-0.58695434  0.0724403  -0.5       )
							(-0.57707939  0.07195615 -0.5       )
							(-0.56716642  0.07143473 -0.5       )
							(-0.5572103   0.07087675 -0.5       )
							(-0.54720571  0.0702828  -0.5       )
							(-0.53714719  0.06965329 -0.5       )
							(-0.52702918  0.06898851 -0.5       )
							(-0.51684601  0.06828863 -0.5       )
							(-0.50659194  0.06755365 -0.5       )
							(-0.49626125  0.06678346 -0.5       )
							(-0.48584818  0.06597781 -0.5       )
							(-0.47534703  0.06513633 -0.5       )
							(-0.46475216  0.06425853 -0.5       )
							(-0.45405804  0.06334379 -0.5       )
							(-0.44325925  0.0623914  -0.5       )
							(-0.43235055  0.06140054 -0.5       )
							(-0.42132689  0.06037027 -0.5       )
							(-0.41018345  0.0592996  -0.5       )
							(-0.39891566  0.05818743 -0.5       )
							(-0.38751924  0.05703259 -0.5       )
							(-0.37599023  0.05583387 -0.5       )
							(-0.36432505  0.05458997 -0.5       )
							(-0.35252047  0.05329958 -0.5       )
							(-0.3405737   0.05196134 -0.5       )
							(-0.32848239  0.05057387 -0.5       )
							(-0.3162447  0.0491358 -0.5      )
							(-0.30385927  0.04764573 -0.5       )
							(-0.29132531  0.04610232 -0.5       )
							(-0.27864261  0.04450423 -0.5       )
							(-0.26581158  0.04285018 -0.5       )
							(-0.25283327  0.04113896 -0.5       )
							(-0.23970942  0.03936941 -0.5       )
							(-0.22644247  0.0375405  -0.5       )
							(-0.21303562  0.03565128 -0.5       )
							(-0.19949286  0.03370096 -0.5       )
							(-0.18581897  0.03168886 -0.5       )
							(-0.1720196  0.0296145 -0.5      )
							(-0.15810127  0.02747755 -0.5       )
							(-0.14407142  0.02527793 -0.5       )
							(-0.12993846  0.02301574 -0.5       )
							(-0.11571174  0.02069135 -0.5       )
							(-0.10140167  0.0183054  -0.5       )
							(-0.0870197   0.01585881 -0.5       )
							(-0.07257834  0.01335282 -0.5       )
							(-0.05809127  0.01078899 -0.5       )
							(-0.04357328  0.00816927 -0.5       )
							(-0.02904038  0.00549597 -0.5       )
							(-0.01450979  0.00277183 -0.5       )

						)
		spline 1  3 (
							(-0.99961056  0.0038486   0.5       )
							(-0.99847251  0.00761757  0.5       )
							(-0.99663005  0.01130099  0.5       )
							(-0.99412571  0.01489359  0.5       )
							(-0.9910004   0.01839073  0.5       )
							(-0.98729346  0.02178834  0.5       )
							(-0.98304264  0.02508293  0.5       )
							(-0.97828415  0.0282715   0.5       )
							(-0.9730527  0.0313516  0.5      )
							(-0.96738149  0.03432121  0.5       )
							(-0.96130226  0.03717879  0.5       )
							(-0.95484533  0.0399232   0.5       )
							(-0.94803959  0.04255371  0.5       )
							(-0.94091256  0.04506995  0.5       )
							(-0.9334904   0.04747191  0.5       )
							(-0.92579793  0.0497599   0.5       )
							(-0.91785868  0.0519345   0.5       )
							(-0.9096949   0.05399662  0.5       )
							(-0.90132758  0.05594739  0.5       )
							(-0.89277651  0.05778819  0.5       )
							(-0.88406027  0.05952059  0.5       )
							(-0.87519627  0.06114638  0.5       )
							(-0.86620079  0.06266752  0.5       )
							(-0.85708898  0.06408611  0.5       )
							(-0.84787494  0.0654044   0.5       )
							(-0.83857168  0.06662475  0.5       )
							(-0.82919119  0.06774963  0.5       )
							(-0.81974447  0.0687816   0.5       )
							(-0.81024153  0.06972326  0.5       )
							(-0.80069146  0.07057729  0.5       )
							(-0.79110239  0.07134641  0.5       )
							(-0.78148162  0.07203334  0.5       )
							(-0.77183553  0.07264084  0.5       )
							(-0.76216972  0.07317165  0.5       )
							(-0.75248896  0.0736285   0.5       )
							(-0.74279724  0.07401409  0.5       )
							(-0.73309782  0.07433109  0.5       )
							(-0.72339324  0.0745821   0.5       )
							(-0.71368536  0.07476969  0.5       )
							(-0.70397536  0.07489634  0.5       )
							(-0.69426381  0.07496446  0.5       )
							(-0.68455068  0.07497638  0.5       )
							(-0.67483535  0.07493432  0.5       )
							(-0.66511669  0.07484042  0.5       )
							(-0.65539302  0.0746967   0.5       )
							(-0.64566222  0.07450506  0.5       )
							(-0.63592168  0.07426729  0.5       )
							(-0.62616839  0.07398507  0.5       )
							(-0.61639894  0.07365992  0.5       )
							(-0.60660957  0.07329325  0.5       )
							(-0.59679617  0.07288633  0.5       )
							(-0.58695434  0.0724403   0.5       )
							(-0.57707939  0.07195615  0.5       )
							(-0.56716642  0.07143473  0.5       )
							(-0.5572103   0.07087675  0.5       )
							(-0.54720571  0.0702828   0.5       )
							(-0.53714719  0.06965329  0.5       )
							(-0.52702918  0.06898851  0.5       )
							(-0.51684601  0.06828863  0.5       )
							(-0.50659194  0.06755365  0.5       )
							(-0.49626125  0.06678346  0.5       )
							(-0.48584818  0.06597781  0.5       )
							(-0.47534703  0.06513633  0.5       )
							(-0.46475216  0.06425853  0.5       )
							(-0.45405804  0.06334379  0.5       )
							(-0.44325925  0.0623914   0.5       )
							(-0.43235055  0.06140054  0.5       )
							(-0.42132689  0.06037027  0.5       )
							(-0.41018345  0.0592996   0.5       )
							(-0.39891566  0.05818743  0.5       )
							(-0.38751924  0.05703259  0.5       )
							(-0.37599023  0.05583387  0.5       )
							(-0.36432505  0.05458997  0.5       )
							(-0.35252047  0.05329958  0.5       )
							(-0.3405737   0.05196134  0.5       )
							(-0.32848239  0.05057387  0.5       )
							(-0.3162447  0.0491358  0.5      )
							(-0.30385927  0.04764573  0.5       )
							(-0.29132531  0.04610232  0.5       )
							(-0.27864261  0.04450423  0.5       )
							(-0.26581158  0.04285018  0.5       )
							(-0.25283327  0.04113896  0.5       )
							(-0.23970942  0.03936941  0.5       )
							(-0.22644247  0.0375405   0.5       )
							(-0.21303562  0.03565128  0.5       )
							(-0.19949286  0.03370096  0.5       )
							(-0.18581897  0.03168886  0.5       )
							(-0.1720196  0.0296145  0.5      )
							(-0.15810127  0.02747755  0.5       )
							(-0.14407142  0.02527793  0.5       )
							(-0.12993846  0.02301574  0.5       )
							(-0.11571174  0.02069135  0.5       )
							(-0.10140167  0.0183054   0.5       )
							(-0.0870197   0.01585881  0.5       )
							(-0.07257834  0.01335282  0.5       )
							(-0.05809127  0.01078899  0.5       )
							(-0.04357328  0.00816927  0.5       )
							(-0.02904038  0.00549597  0.5       )
							(-0.01450979  0.00277183  0.5       )

						)
		spline 0 16 (
							(-0.99961056 -0.0038486  -0.5       )
							(-0.99847251 -0.00761757 -0.5       )
							(-0.99663005 -0.01130099 -0.5       )
							(-0.99412571 -0.01489359 -0.5       )
							(-0.9910004  -0.01839073 -0.5       )
							(-0.98729346 -0.02178834 -0.5       )
							(-0.98304264 -0.02508293 -0.5       )
							(-0.97828415 -0.0282715  -0.5       )
							(-0.9730527 -0.0313516 -0.5      )
							(-0.96738149 -0.03432121 -0.5       )
							(-0.96130226 -0.03717879 -0.5       )
							(-0.95484533 -0.0399232  -0.5       )
							(-0.94803959 -0.04255371 -0.5       )
							(-0.94091256 -0.04506995 -0.5       )
							(-0.9334904  -0.04747191 -0.5       )
							(-0.92579793 -0.0497599  -0.5       )
							(-0.91785868 -0.0519345  -0.5       )
							(-0.9096949  -0.05399662 -0.5       )
							(-0.90132758 -0.05594739 -0.5       )
							(-0.89277651 -0.05778819 -0.5       )
							(-0.88406027 -0.05952059 -0.5       )
							(-0.87519627 -0.06114638 -0.5       )
							(-0.86620079 -0.06266752 -0.5       )
							(-0.85708898 -0.06408611 -0.5       )
							(-0.84787494 -0.0654044  -0.5       )
							(-0.83857168 -0.06662475 -0.5       )
							(-0.82919119 -0.06774963 -0.5       )
							(-0.81974447 -0.0687816  -0.5       )
							(-0.81024153 -0.06972326 -0.5       )
							(-0.80069146 -0.07057729 -0.5       )
							(-0.79110239 -0.07134641 -0.5       )
							(-0.78148162 -0.07203334 -0.5       )
							(-0.77183553 -0.07264084 -0.5       )
							(-0.76216972 -0.07317165 -0.5       )
							(-0.75248896 -0.0736285  -0.5       )
							(-0.74279724 -0.07401409 -0.5       )
							(-0.73309782 -0.07433109 -0.5       )
							(-0.72339324 -0.0745821  -0.5       )
							(-0.71368536 -0.07476969 -0.5       )
							(-0.70397536 -0.07489634 -0.5       )
							(-0.69426381 -0.07496446 -0.5       )
							(-0.68455068 -0.07497638 -0.5       )
							(-0.67483535 -0.07493432 -0.5       )
							(-0.66511669 -0.07484042 -0.5       )
							(-0.65539302 -0.0746967  -0.5       )
							(-0.64566222 -0.07450506 -0.5       )
							(-0.63592168 -0.07426729 -0.5       )
							(-0.62616839 -0.07398507 -0.5       )
							(-0.61639894 -0.07365992 -0.5       )
							(-0.60660957 -0.07329325 -0.5       )
							(-0.59679617 -0.07288633 -0.5       )
							(-0.58695434 -0.0724403  -0.5       )
							(-0.57707939 -0.07195615 -0.5       )
							(-0.56716642 -0.07143473 -0.5       )
							(-0.5572103  -0.07087675 -0.5       )
							(-0.54720571 -0.0702828  -0.5       )
							(-0.53714719 -0.06965329 -0.5       )
							(-0.52702918 -0.06898851 -0.5       )
							(-0.51684601 -0.06828863 -0.5       )
							(-0.50659194 -0.06755365 -0.5       )
							(-0.49626125 -0.06678346 -0.5       )
							(-0.48584818 -0.06597781 -0.5       )
							(-0.47534703 -0.06513633 -0.5       )
							(-0.46475216 -0.06425853 -0.5       )
							(-0.45405804 -0.06334379 -0.5       )
							(-0.44325925 -0.0623914  -0.5       )
							(-0.43235055 -0.06140054 -0.5       )
							(-0.42132689 -0.06037027 -0.5       )
							(-0.41018345 -0.0592996  -0.5       )
							(-0.39891566 -0.05818743 -0.5       )
							(-0.38751924 -0.05703259 -0.5       )
							(-0.37599023 -0.05583387 -0.5       )
							(-0.36432505 -0.05458997 -0.5       )
							(-0.35252047 -0.05329958 -0.5       )
							(-0.3405737  -0.05196134 -0.5       )
							(-0.32848239 -0.05057387 -0.5       )
							(-0.3162447 -0.0491358 -0.5      )
							(-0.30385927 -0.04764573 -0.5       )
							(-0.29132531 -0.04610232 -0.5       )
							(-0.27864261 -0.04450423 -0.5       )
							(-0.26581158 -0.04285018 -0.5       )
							(-0.25283327 -0.04113896 -0.5       )
							(-0.23970942 -0.03936941 -0.5       )
							(-0.22644247 -0.0375405  -0.5       )
							(-0.21303562 -0.03565128 -0.5       )
							(-0.19949286 -0.03370096 -0.5       )
							(-0.18581897 -0.03168886 -0.5       )
							(-0.1720196 -0.0296145 -0.5      )
							(-0.15810127 -0.02747755 -0.5       )
							(-0.14407142 -0.02527793 -0.5       )
							(-0.12993846 -0.02301574 -0.5       )
							(-0.11571174 -0.02069135 -0.5       )
							(-0.10140167 -0.0183054  -0.5       )
							(-0.0870197  -0.01585881 -0.5       )
							(-0.07257834 -0.01335282 -0.5       )
							(-0.05809127 -0.01078899 -0.5       )
							(-0.04357328 -0.00816927 -0.5       )
							(-0.02904038 -0.00549597 -0.5       )
							(-0.01450979 -0.00277183 -0.5       )

						)
		spline 1 17 (
							(-0.99961056 -0.0038486   0.5       )
							(-0.99847251 -0.00761757  0.5       )
							(-0.99663005 -0.01130099  0.5       )
							(-0.99412571 -0.01489359  0.5       )
							(-0.9910004  -0.01839073  0.5       )
							(-0.98729346 -0.02178834  0.5       )
							(-0.98304264 -0.02508293  0.5       )
							(-0.97828415 -0.0282715   0.5       )
							(-0.9730527 -0.0313516  0.5      )
							(-0.96738149 -0.03432121  0.5       )
							(-0.96130226 -0.03717879  0.5       )
							(-0.95484533 -0.0399232   0.5       )
							(-0.94803959 -0.04255371  0.5       )
							(-0.94091256 -0.04506995  0.5       )
							(-0.9334904  -0.04747191  0.5       )
							(-0.92579793 -0.0497599   0.5       )
							(-0.91785868 -0.0519345   0.5       )
							(-0.9096949  -0.05399662  0.5       )
							(-0.90132758 -0.05594739  0.5       )
							(-0.89277651 -0.05778819  0.5       )
							(-0.88406027 -0.05952059  0.5       )
							(-0.87519627 -0.06114638  0.5       )
							(-0.86620079 -0.06266752  0.5       )
							(-0.85708898 -0.06408611  0.5       )
							(-0.84787494 -0.0654044   0.5       )
							(-0.83857168 -0.06662475  0.5       )
							(-0.82919119 -0.06774963  0.5       )
							(-0.81974447 -0.0687816   0.5       )
							(-0.81024153 -0.06972326  0.5       )
							(-0.80069146 -0.07057729  0.5       )
							(-0.79110239 -0.07134641  0.5       )
							(-0.78148162 -0.07203334  0.5       )
							(-0.77183553 -0.07264084  0.5       )
							(-0.76216972 -0.07317165  0.5       )
							(-0.75248896 -0.0736285   0.5       )
							(-0.74279724 -0.07401409  0.5       )
							(-0.73309782 -0.07433109  0.5       )
							(-0.72339324 -0.0745821   0.5       )
							(-0.71368536 -0.07476969  0.5       )
							(-0.70397536 -0.07489634  0.5       )
							(-0.69426381 -0.07496446  0.5       )
							(-0.68455068 -0.07497638  0.5       )
							(-0.67483535 -0.07493432  0.5       )
							(-0.66511669 -0.07484042  0.5       )
							(-0.65539302 -0.0746967   0.5       )
							(-0.64566222 -0.07450506  0.5       )
							(-0.63592168 -0.07426729  0.5       )
							(-0.62616839 -0.07398507  0.5       )
							(-0.61639894 -0.07365992  0.5       )
							(-0.60660957 -0.07329325  0.5       )
							(-0.59679617 -0.07288633  0.5       )
							(-0.58695434 -0.0724403   0.5       )
							(-0.57707939 -0.07195615  0.5       )
							(-0.56716642 -0.07143473  0.5       )
							(-0.5572103  -0.07087675  0.5       )
							(-0.54720571 -0.0702828   0.5       )
							(-0.53714719 -0.06965329  0.5       )
							(-0.52702918 -0.06898851  0.5       )
							(-0.51684601 -0.06828863  0.5       )
							(-0.50659194 -0.06755365  0.5       )
							(-0.49626125 -0.06678346  0.5       )
							(-0.48584818 -0.06597781  0.5       )
							(-0.47534703 -0.06513633  0.5       )
							(-0.46475216 -0.06425853  0.5       )
							(-0.45405804 -0.06334379  0.5       )
							(-0.44325925 -0.0623914   0.5       )
							(-0.43235055 -0.06140054  0.5       )
							(-0.42132689 -0.06037027  0.5       )
							(-0.41018345 -0.0592996   0.5       )
							(-0.39891566 -0.05818743  0.5       )
							(-0.38751924 -0.05703259  0.5       )
							(-0.37599023 -0.05583387  0.5       )
							(-0.36432505 -0.05458997  0.5       )
							(-0.35252047 -0.05329958  0.5       )
							(-0.3405737  -0.05196134  0.5       )
							(-0.32848239 -0.05057387  0.5       )
							(-0.3162447 -0.0491358  0.5      )
							(-0.30385927 -0.04764573  0.5       )
							(-0.29132531 -0.04610232  0.5       )
							(-0.27864261 -0.04450423  0.5       )
							(-0.26581158 -0.04285018  0.5       )
							(-0.25283327 -0.04113896  0.5       )
							(-0.23970942 -0.03936941  0.5       )
							(-0.22644247 -0.0375405   0.5       )
							(-0.21303562 -0.03565128  0.5       )
							(-0.19949286 -0.03370096  0.5       )
							(-0.18581897 -0.03168886  0.5       )
							(-0.1720196 -0.0296145  0.5      )
							(-0.15810127 -0.02747755  0.5       )
							(-0.14407142 -0.02527793  0.5       )
							(-0.12993846 -0.02301574  0.5       )
							(-0.11571174 -0.02069135  0.5       )
							(-0.10140167 -0.0183054   0.5       )
							(-0.0870197  -0.01585881  0.5       )
							(-0.07257834 -0.01335282  0.5       )
							(-0.05809127 -0.01078899  0.5       )
							(-0.04357328 -0.00816927  0.5       )
							(-0.02904038 -0.00549597  0.5       )
							(-0.01450979 -0.00277183  0.5       )

						)
);

boundary
(
    inOut
    {
        type patch;
        faces
        (
            ( 6  4  5  7)
            ( 6  8  9  7)
            ( 10 12 13 11 )
            ( 12 14 15 13 )
            ( 4 14 15  5 )
            ( 8 10 11  9 )
        );
    }

    surface
    {
        type wall;
        faces
        (
            ( 0  2  3  1)
            ( 0 16 17  1)
        );
    }
    interface1
    {
        type patch;
        faces
        (
            ( 2 12 13  3)
        );
    }

    interface2
    {
        type patch;
        faces
        (
            (16 12 13 17)
        );
    }
);

mergePatchPairs
(
    (interface1 interface2)
);
