/*---------------------------------*- C++ -*-----------------------------------*/
//    //////////////      ///////////////
//    //////////////      //////////////
//         ////           ////             /////       ////  //  /// //// ////
//         ////     ////  ///////////   ///    ///  ///    ///   ////  ///  ///
//  ////   ////           ///////////   ///    ///  ///    ///   ///   ///  ///
//   //// ////            ////          ///    ///  ///    ///   ///   ///  ///
//     /////              ////            /////       ///// ///  ///   ///  ///
/*---------------------------------*- C++ -*-----------------------------------*/

FoamFile
{
		version			2.0;
		format			ascii;
		class				dictionary;
		object			blockMeshDict;
}

// ***************************************************************************** //

scale				1;

vertices
(
		(-0.3 0.0 -0.5)	//	0
		(-0.3 0.0 0.5)	//	1
		(0.0 0.0 -0.5)	//	2
		(0.0 0.0 0.5)	//	3
		(0.0 3.0 -0.5)	//	4
		(0.0 3.0 0.5)	//	5
		(-3.0 0.0 -0.5)	//	6
		(-3.0 0.0 0.5)	//	7
		(0.0 -3.0 -0.5)	//	8
		(0.0 -3.0 0.5)	//	9
		(3.0 -3.0 -0.5)	//	10
		(3.0 -3.0 0.5)	//	11
		(3.0 0.0 -0.5)	//	12
		(3.0 0.0 0.5)	//	13
		(3.0 3.0 -0.5)	//	14
		(3.0 3.0 0.5)	//	15
		(0.0 0.0 -0.5)	//	16
		(0.0 0.0 0.5)	//	17
);

blocks
(
		hex ( 0  2  4  6  1  3  5  7 ) (100 30 1) edgeGrading ( 50  1  1 50 1000 1000 1000 1000 1 1 1 1) // 0
		hex ( 6  8 16  0  7  9 17  1 ) (100 30 1) edgeGrading (  1 50 50  1 0.001 0.001 0.001 0.001 1 1 1 1) // 1
		hex ( 8 10 12 16  9 11 13 17 ) (50 30 1) simpleGrading ( 200 0.001 1) // 1
		hex ( 2 12 14  4  3 13 15  5 ) (50 30 1) simpleGrading ( 200 1000 1) // 1
);

edges
(
		arc  4  6  90.0  (0 0 1)
		arc  5  7  90.0  (0 0 1)
		arc  6  8  90.0  (0 0 1)
		arc  7  9  90.0  (0 0 1)
		spline 0  2 (
							(-0.29992638  0.00070485 -0.5       )
							(-0.29970832  0.00138729 -0.5       )
							(-0.29934996  0.00204834 -0.5       )
							(-0.29885537  0.002689   -0.5       )
							(-0.29822852  0.0033102  -0.5       )
							(-0.29747332  0.00391283 -0.5       )
							(-0.29659359  0.00449772 -0.5       )
							(-0.29559309  0.00506566 -0.5       )
							(-0.29447549  0.0056174  -0.5       )
							(-0.29324437  0.00615363 -0.5       )
							(-0.29190327  0.006675   -0.5       )
							(-0.29045563  0.00718212 -0.5       )
							(-0.28890484  0.00767555 -0.5       )
							(-0.28725419  0.0081558  -0.5       )
							(-0.28550692  0.00862337 -0.5       )
							(-0.28366619  0.00907869 -0.5       )
							(-0.28173511  0.00952216 -0.5       )
							(-0.2797167   0.00995414 -0.5       )
							(-0.27761392  0.01037497 -0.5       )
							(-0.27542967  0.01078494 -0.5       )
							(-0.27316678  0.01118429 -0.5       )
							(-0.270828    0.01157326 -0.5       )
							(-0.26841606  0.01195203 -0.5       )
							(-0.26593358  0.01232076 -0.5       )
							(-0.26338315  0.01267958 -0.5       )
							(-0.26076728  0.01302858 -0.5       )
							(-0.25808844  0.01336784 -0.5       )
							(-0.25534902  0.01369739 -0.5       )
							(-0.25255136  0.01401725 -0.5       )
							(-0.24969776  0.01432742 -0.5       )
							(-0.24679043  0.01462784 -0.5       )
							(-0.24383156  0.01491847 -0.5       )
							(-0.24082326  0.01519923 -0.5       )
							(-0.23776761  0.01547001 -0.5       )
							(-0.2346666   0.01573068 -0.5       )
							(-0.23152222  0.01598111 -0.5       )
							(-0.22833637  0.01622113 -0.5       )
							(-0.22511091  0.01645057 -0.5       )
							(-0.22184767  0.01666924 -0.5       )
							(-0.21854839  0.01687691 -0.5       )
							(-0.21521481  0.01707337 -0.5       )
							(-0.21184861  0.01725838 -0.5       )
							(-0.20845139  0.01743169 -0.5       )
							(-0.20502476  0.01759304 -0.5       )
							(-0.20157026  0.01774216 -0.5       )
							(-0.19808938  0.01787877 -0.5       )
							(-0.19458357  0.01800258 -0.5       )
							(-0.19105427  0.01811329 -0.5       )
							(-0.18750284  0.0182106  -0.5       )
							(-0.18393063  0.01829421 -0.5       )
							(-0.18033894  0.01836381 -0.5       )
							(-0.17672902  0.01841908 -0.5       )
							(-0.17310212  0.01845971 -0.5       )
							(-0.16945942  0.01848537 -0.5       )
							(-0.16580209  0.01849577 -0.5       )
							(-0.16213125  0.01849057 -0.5       )
							(-0.158448    0.01846947 -0.5       )
							(-0.15475339  0.01843215 -0.5       )
							(-0.15104846  0.01837832 -0.5       )
							(-0.14733423  0.01830767 -0.5       )
							(-0.14361165  0.0182199  -0.5       )
							(-0.13988168  0.01811473 -0.5       )
							(-0.13614523  0.01799189 -0.5       )
							(-0.13240321  0.01785109 -0.5       )
							(-0.12865648  0.01769209 -0.5       )
							(-0.12490589  0.01751464 -0.5       )
							(-0.12115226  0.01731849 -0.5       )
							(-0.11739639  0.01710343 -0.5       )
							(-0.11363906  0.01686926 -0.5       )
							(-0.10988103  0.01661577 -0.5       )
							(-0.10612303  0.0163428  -0.5       )
							(-0.1023658   0.01605018 -0.5       )
							(-0.09861003  0.01573779 -0.5       )
							(-0.0948564   0.01540549 -0.5       )
							(-0.0911056   0.01505319 -0.5       )
							(-0.08735827  0.01468081 -0.5       )
							(-0.08361506  0.0142883  -0.5       )
							(-0.0798766   0.01387562 -0.5       )
							(-0.07614351  0.01344278 -0.5       )
							(-0.07241638  0.01298978 -0.5       )
							(-0.06869582  0.01251669 -0.5       )
							(-0.0649824   0.01202356 -0.5       )
							(-0.06127672  0.0115105  -0.5       )
							(-0.05757934  0.01097765 -0.5       )
							(-0.05389082  0.01042517 -0.5       )
							(-0.05021172  0.00985326 -0.5       )
							(-0.04654259  0.00926213 -0.5       )
							(-0.04288398  0.00865207 -0.5       )
							(-0.03923645  0.00802336 -0.5       )
							(-0.03560052  0.00737633 -0.5       )
							(-0.03197675  0.00671136 -0.5       )
							(-0.02836568  0.00602886 -0.5       )
							(-0.02476785  0.00532927 -0.5       )
							(-0.02118381  0.00461308 -0.5       )
							(-0.0176141   0.00388082 -0.5       )
							(-0.01405927  0.00313307 -0.5       )
							(-0.01051989  0.00237042 -0.5       )
							(-0.0069965   0.00159356 -0.5       )
							(-0.00348968  0.00080316 -0.5       )

						)
		spline 1  3 (
							(-0.29992638  0.00070485  0.5       )
							(-0.29970832  0.00138729  0.5       )
							(-0.29934996  0.00204834  0.5       )
							(-0.29885537  0.002689    0.5       )
							(-0.29822852  0.0033102   0.5       )
							(-0.29747332  0.00391283  0.5       )
							(-0.29659359  0.00449772  0.5       )
							(-0.29559309  0.00506566  0.5       )
							(-0.29447549  0.0056174   0.5       )
							(-0.29324437  0.00615363  0.5       )
							(-0.29190327  0.006675    0.5       )
							(-0.29045563  0.00718212  0.5       )
							(-0.28890484  0.00767555  0.5       )
							(-0.28725419  0.0081558   0.5       )
							(-0.28550692  0.00862337  0.5       )
							(-0.28366619  0.00907869  0.5       )
							(-0.28173511  0.00952216  0.5       )
							(-0.2797167   0.00995414  0.5       )
							(-0.27761392  0.01037497  0.5       )
							(-0.27542967  0.01078494  0.5       )
							(-0.27316678  0.01118429  0.5       )
							(-0.270828    0.01157326  0.5       )
							(-0.26841606  0.01195203  0.5       )
							(-0.26593358  0.01232076  0.5       )
							(-0.26338315  0.01267958  0.5       )
							(-0.26076728  0.01302858  0.5       )
							(-0.25808844  0.01336784  0.5       )
							(-0.25534902  0.01369739  0.5       )
							(-0.25255136  0.01401725  0.5       )
							(-0.24969776  0.01432742  0.5       )
							(-0.24679043  0.01462784  0.5       )
							(-0.24383156  0.01491847  0.5       )
							(-0.24082326  0.01519923  0.5       )
							(-0.23776761  0.01547001  0.5       )
							(-0.2346666   0.01573068  0.5       )
							(-0.23152222  0.01598111  0.5       )
							(-0.22833637  0.01622113  0.5       )
							(-0.22511091  0.01645057  0.5       )
							(-0.22184767  0.01666924  0.5       )
							(-0.21854839  0.01687691  0.5       )
							(-0.21521481  0.01707337  0.5       )
							(-0.21184861  0.01725838  0.5       )
							(-0.20845139  0.01743169  0.5       )
							(-0.20502476  0.01759304  0.5       )
							(-0.20157026  0.01774216  0.5       )
							(-0.19808938  0.01787877  0.5       )
							(-0.19458357  0.01800258  0.5       )
							(-0.19105427  0.01811329  0.5       )
							(-0.18750284  0.0182106   0.5       )
							(-0.18393063  0.01829421  0.5       )
							(-0.18033894  0.01836381  0.5       )
							(-0.17672902  0.01841908  0.5       )
							(-0.17310212  0.01845971  0.5       )
							(-0.16945942  0.01848537  0.5       )
							(-0.16580209  0.01849577  0.5       )
							(-0.16213125  0.01849057  0.5       )
							(-0.158448    0.01846947  0.5       )
							(-0.15475339  0.01843215  0.5       )
							(-0.15104846  0.01837832  0.5       )
							(-0.14733423  0.01830767  0.5       )
							(-0.14361165  0.0182199   0.5       )
							(-0.13988168  0.01811473  0.5       )
							(-0.13614523  0.01799189  0.5       )
							(-0.13240321  0.01785109  0.5       )
							(-0.12865648  0.01769209  0.5       )
							(-0.12490589  0.01751464  0.5       )
							(-0.12115226  0.01731849  0.5       )
							(-0.11739639  0.01710343  0.5       )
							(-0.11363906  0.01686926  0.5       )
							(-0.10988103  0.01661577  0.5       )
							(-0.10612303  0.0163428   0.5       )
							(-0.1023658   0.01605018  0.5       )
							(-0.09861003  0.01573779  0.5       )
							(-0.0948564   0.01540549  0.5       )
							(-0.0911056   0.01505319  0.5       )
							(-0.08735827  0.01468081  0.5       )
							(-0.08361506  0.0142883   0.5       )
							(-0.0798766   0.01387562  0.5       )
							(-0.07614351  0.01344278  0.5       )
							(-0.07241638  0.01298978  0.5       )
							(-0.06869582  0.01251669  0.5       )
							(-0.0649824   0.01202356  0.5       )
							(-0.06127672  0.0115105   0.5       )
							(-0.05757934  0.01097765  0.5       )
							(-0.05389082  0.01042517  0.5       )
							(-0.05021172  0.00985326  0.5       )
							(-0.04654259  0.00926213  0.5       )
							(-0.04288398  0.00865207  0.5       )
							(-0.03923645  0.00802336  0.5       )
							(-0.03560052  0.00737633  0.5       )
							(-0.03197675  0.00671136  0.5       )
							(-0.02836568  0.00602886  0.5       )
							(-0.02476785  0.00532927  0.5       )
							(-0.02118381  0.00461308  0.5       )
							(-0.0176141   0.00388082  0.5       )
							(-0.01405927  0.00313307  0.5       )
							(-0.01051989  0.00237042  0.5       )
							(-0.0069965   0.00159356  0.5       )
							(-0.00348968  0.00080316  0.5       )

						)
		spline 0 16 (
							(-0.2999247  -0.00068617 -0.5       )
							(-0.2997021  -0.00135778 -0.5       )
							(-0.29933704 -0.00201514 -0.5       )
							(-0.29883424 -0.00265852 -0.5       )
							(-0.29819834 -0.00328813 -0.5       )
							(-0.29743381 -0.00390418 -0.5       )
							(-0.29654507 -0.00450681 -0.5       )
							(-0.29553639 -0.00509616 -0.5       )
							(-0.29441194 -0.0056723  -0.5       )
							(-0.2931758 -0.0062353 -0.5      )
							(-0.29183191 -0.0067852  -0.5       )
							(-0.29038415 -0.00732199 -0.5       )
							(-0.28883625 -0.00784565 -0.5       )
							(-0.28719187 -0.00835613 -0.5       )
							(-0.28545458 -0.00885337 -0.5       )
							(-0.28362781 -0.00933728 -0.5       )
							(-0.28171492 -0.00980773 -0.5       )
							(-0.27971918 -0.01026459 -0.5       )
							(-0.27764376 -0.01070772 -0.5       )
							(-0.27549171 -0.01113696 -0.5       )
							(-0.27326604 -0.01155211 -0.5       )
							(-0.27096962 -0.01195299 -0.5       )
							(-0.26860527 -0.01233938 -0.5       )
							(-0.26617569 -0.01271108 -0.5       )
							(-0.26368352 -0.01306785 -0.5       )
							(-0.2611313  -0.01340947 -0.5       )
							(-0.2585215  -0.01373569 -0.5       )
							(-0.25585649 -0.01404628 -0.5       )
							(-0.25313857 -0.01434097 -0.5       )
							(-0.25036998 -0.01461953 -0.5       )
							(-0.24755284 -0.01488169 -0.5       )
							(-0.24468923 -0.01512722 -0.5       )
							(-0.24178114 -0.01535587 -0.5       )
							(-0.2388305  -0.01556739 -0.5       )
							(-0.23583914 -0.01576154 -0.5       )
							(-0.23280885 -0.0159381  -0.5       )
							(-0.22974134 -0.01609684 -0.5       )
							(-0.22663825 -0.01623755 -0.5       )
							(-0.22350115 -0.01636001 -0.5       )
							(-0.22033156 -0.01646406 -0.5       )
							(-0.21713091 -0.01654949 -0.5       )
							(-0.21390061 -0.01661617 -0.5       )
							(-0.21064196 -0.01666393 -0.5       )
							(-0.20735624 -0.01669265 -0.5       )
							(-0.20404466 -0.01670223 -0.5       )
							(-0.20070836 -0.01669258 -0.5       )
							(-0.19734844 -0.01666364 -0.5       )
							(-0.19396596 -0.01661535 -0.5       )
							(-0.19056188 -0.01654772 -0.5       )
							(-0.18713717 -0.01646074 -0.5       )
							(-0.18369271 -0.01635447 -0.5       )
							(-0.18022934 -0.01622896 -0.5       )
							(-0.17674786 -0.01608432 -0.5       )
							(-0.17324902 -0.01592067 -0.5       )
							(-0.16973353 -0.01573819 -0.5       )
							(-0.16620206 -0.01553708 -0.5       )
							(-0.16265524 -0.01531757 -0.5       )
							(-0.15909364 -0.01507994 -0.5       )
							(-0.15551782 -0.0148245  -0.5       )
							(-0.15192829 -0.0145516  -0.5       )
							(-0.14832552 -0.01426166 -0.5       )
							(-0.14470996 -0.0139551  -0.5       )
							(-0.14108203 -0.01363242 -0.5       )
							(-0.13744209 -0.01329414 -0.5       )
							(-0.13379049 -0.01294085 -0.5       )
							(-0.13012757 -0.01257318 -0.5       )
							(-0.12645362 -0.01219182 -0.5       )
							(-0.1227689  -0.01179749 -0.5       )
							(-0.11907367 -0.01139098 -0.5       )
							(-0.11536814 -0.01097314 -0.5       )
							(-0.11165252 -0.01054486 -0.5       )
							(-0.10792699 -0.0101071  -0.5       )
							(-0.10419172 -0.00966089 -0.5       )
							(-0.10044686 -0.00920729 -0.5       )
							(-0.09669253 -0.00874744 -0.5       )
							(-0.09292886 -0.00828256 -0.5       )
							(-0.08915596 -0.0078139  -0.5       )
							(-0.08537391 -0.00734281 -0.5       )
							(-0.08158281 -0.00687068 -0.5       )
							(-0.07778272 -0.00639899 -0.5       )
							(-0.07397373 -0.00592928 -0.5       )
							(-0.07015589 -0.00546317 -0.5       )
							(-0.06632927 -0.00500235 -0.5       )
							(-0.06249392 -0.00454858 -0.5       )
							(-0.05864991 -0.00410369 -0.5       )
							(-0.05479727 -0.00366962 -0.5       )
							(-0.05093609 -0.00324836 -0.5       )
							(-0.0470664  -0.00284199 -0.5       )
							(-0.04318829 -0.00245266 -0.5       )
							(-0.03930182 -0.00208263 -0.5       )
							(-0.03540707 -0.00173422 -0.5       )
							(-0.03150413 -0.00140985 -0.5       )
							(-0.02759309 -0.00111203 -0.5       )
							(-0.02367406 -0.00084334 -0.5       )
							(-0.01974717 -0.00060648 -0.5       )
							(-1.58125411e-02 -4.04214374e-04 -5.00000000e-01)
							(-1.18703338e-02 -2.39420910e-04 -5.00000000e-01)
							(-7.92071365e-03 -1.15063024e-04 -5.00000000e-01)
							(-3.96386697e-03 -3.42027378e-05 -5.00000000e-01)

						)
		spline 1 17 (
							(-0.2999247  -0.00068617  0.5       )
							(-0.2997021  -0.00135778  0.5       )
							(-0.29933704 -0.00201514  0.5       )
							(-0.29883424 -0.00265852  0.5       )
							(-0.29819834 -0.00328813  0.5       )
							(-0.29743381 -0.00390418  0.5       )
							(-0.29654507 -0.00450681  0.5       )
							(-0.29553639 -0.00509616  0.5       )
							(-0.29441194 -0.0056723   0.5       )
							(-0.2931758 -0.0062353  0.5      )
							(-0.29183191 -0.0067852   0.5       )
							(-0.29038415 -0.00732199  0.5       )
							(-0.28883625 -0.00784565  0.5       )
							(-0.28719187 -0.00835613  0.5       )
							(-0.28545458 -0.00885337  0.5       )
							(-0.28362781 -0.00933728  0.5       )
							(-0.28171492 -0.00980773  0.5       )
							(-0.27971918 -0.01026459  0.5       )
							(-0.27764376 -0.01070772  0.5       )
							(-0.27549171 -0.01113696  0.5       )
							(-0.27326604 -0.01155211  0.5       )
							(-0.27096962 -0.01195299  0.5       )
							(-0.26860527 -0.01233938  0.5       )
							(-0.26617569 -0.01271108  0.5       )
							(-0.26368352 -0.01306785  0.5       )
							(-0.2611313  -0.01340947  0.5       )
							(-0.2585215  -0.01373569  0.5       )
							(-0.25585649 -0.01404628  0.5       )
							(-0.25313857 -0.01434097  0.5       )
							(-0.25036998 -0.01461953  0.5       )
							(-0.24755284 -0.01488169  0.5       )
							(-0.24468923 -0.01512722  0.5       )
							(-0.24178114 -0.01535587  0.5       )
							(-0.2388305  -0.01556739  0.5       )
							(-0.23583914 -0.01576154  0.5       )
							(-0.23280885 -0.0159381   0.5       )
							(-0.22974134 -0.01609684  0.5       )
							(-0.22663825 -0.01623755  0.5       )
							(-0.22350115 -0.01636001  0.5       )
							(-0.22033156 -0.01646406  0.5       )
							(-0.21713091 -0.01654949  0.5       )
							(-0.21390061 -0.01661617  0.5       )
							(-0.21064196 -0.01666393  0.5       )
							(-0.20735624 -0.01669265  0.5       )
							(-0.20404466 -0.01670223  0.5       )
							(-0.20070836 -0.01669258  0.5       )
							(-0.19734844 -0.01666364  0.5       )
							(-0.19396596 -0.01661535  0.5       )
							(-0.19056188 -0.01654772  0.5       )
							(-0.18713717 -0.01646074  0.5       )
							(-0.18369271 -0.01635447  0.5       )
							(-0.18022934 -0.01622896  0.5       )
							(-0.17674786 -0.01608432  0.5       )
							(-0.17324902 -0.01592067  0.5       )
							(-0.16973353 -0.01573819  0.5       )
							(-0.16620206 -0.01553708  0.5       )
							(-0.16265524 -0.01531757  0.5       )
							(-0.15909364 -0.01507994  0.5       )
							(-0.15551782 -0.0148245   0.5       )
							(-0.15192829 -0.0145516   0.5       )
							(-0.14832552 -0.01426166  0.5       )
							(-0.14470996 -0.0139551   0.5       )
							(-0.14108203 -0.01363242  0.5       )
							(-0.13744209 -0.01329414  0.5       )
							(-0.13379049 -0.01294085  0.5       )
							(-0.13012757 -0.01257318  0.5       )
							(-0.12645362 -0.01219182  0.5       )
							(-0.1227689  -0.01179749  0.5       )
							(-0.11907367 -0.01139098  0.5       )
							(-0.11536814 -0.01097314  0.5       )
							(-0.11165252 -0.01054486  0.5       )
							(-0.10792699 -0.0101071   0.5       )
							(-0.10419172 -0.00966089  0.5       )
							(-0.10044686 -0.00920729  0.5       )
							(-0.09669253 -0.00874744  0.5       )
							(-0.09292886 -0.00828256  0.5       )
							(-0.08915596 -0.0078139   0.5       )
							(-0.08537391 -0.00734281  0.5       )
							(-0.08158281 -0.00687068  0.5       )
							(-0.07778272 -0.00639899  0.5       )
							(-0.07397373 -0.00592928  0.5       )
							(-0.07015589 -0.00546317  0.5       )
							(-0.06632927 -0.00500235  0.5       )
							(-0.06249392 -0.00454858  0.5       )
							(-0.05864991 -0.00410369  0.5       )
							(-0.05479727 -0.00366962  0.5       )
							(-0.05093609 -0.00324836  0.5       )
							(-0.0470664  -0.00284199  0.5       )
							(-0.04318829 -0.00245266  0.5       )
							(-0.03930182 -0.00208263  0.5       )
							(-0.03540707 -0.00173422  0.5       )
							(-0.03150413 -0.00140985  0.5       )
							(-0.02759309 -0.00111203  0.5       )
							(-0.02367406 -0.00084334  0.5       )
							(-0.01974717 -0.00060648  0.5       )
							(-1.58125411e-02 -4.04214374e-04  5.00000000e-01)
							(-1.18703338e-02 -2.39420910e-04  5.00000000e-01)
							(-7.92071365e-03 -1.15063024e-04  5.00000000e-01)
							(-3.96386697e-03 -3.42027378e-05  5.00000000e-01)

						)
);

boundary
(
    down
    {
        type patch;
        faces
        (
            ( 8 10 11  9 )
        );
    }
    up
    {
        type patch;
        faces
        (
            ( 4 14 15  5 )
        );
    }
    right
    {
        type patch;
        faces
        (
            ( 10 12 13 11 )
            ( 12 14 15 13 )
        );
    }
    meanFlow
    {
        type patch;
        faces
        (
            ( 6  4  5  7)
            ( 6  8  9  7)
        );
    }

    surface
    {
        type wall;
        faces
        (
            ( 0  2  3  1)
            ( 0 16 17  1)
        );
    }
    interface1
    {
        type patch;
        faces
        (
            ( 2 12 13  3)
        );
    }

    interface2
    {
        type patch;
        faces
        (
            (16 12 13 17)
        );
    }
);

mergePatchPairs
(
    (interface1 interface2)
);
