/*---------------------------------*- C++ -*-----------------------------------*/
//    //////////////      ///////////////
//    //////////////      //////////////
//         ////           ////             /////       ////  //  /// //// ////
//         ////     ////  ///////////   ///    ///  ///    ///   ////  ///  ///
//  ////   ////           ///////////   ///    ///  ///    ///   ///   ///  ///
//   //// ////            ////          ///    ///  ///    ///   ///   ///  ///
//     /////              ////            /////       ///// ///  ///   ///  ///
/*---------------------------------*- C++ -*-----------------------------------*/

FoamFile
{
		version			2.0;
		format			ascii;
		class				dictionary;
		object			blockMeshDict;
}

// ***************************************************************************** //

scale				1;

vertices
(
		(-3.0 0.0 -0.078)	//	0
		(-3.0 0.0 0.078)	//	1
		(-0.022837541347542848 -3.0 -0.078)	//	2
		(-0.022837541347542848 -3.0 0.078)	//	3
		(-0.3 0.0 -0.078)	//	4
		(-0.3 0.0 0.078)	//	5
		(-0.022837541347542848 0.0042385293989366715 -0.078)	//	6
		(-0.022837541347542848 0.0042385293989366715 0.078)	//	7
		(-0.022837541347542848 3.0 -0.078)	//	8
		(-0.022837541347542848 3.0 0.078)	//	9
		(-0.003553 3.0 -0.078)	//	10
		(-0.003553 3.0 0.078)	//	11
		(2.996444 0.0 -0.078)	//	12
		(2.996444 0.0 0.078)	//	13
		(-0.003553 -3.0 -0.078)	//	14
		(-0.003553 -3.0 0.078)	//	15
		(0.0 0.0 -0.078)	//	16
		(0.0 0.0 0.078)	//	17
		(-0.022837541347542848 -0.0042385293989366715 -0.078)	//	18
		(-0.022837541347542848 -0.0042385293989366715 0.078)	//	19
		(0.0 0.0 -0.078)	//	20
		(0.0 0.0 0.078)	//	21
		(-0.003556 0.003556 -0.078)	//	22
		(-0.003556 0.003556 0.078)	//	23
		(-0.003555 0.0037338000000000002 -0.078)	//	24
		(-0.003555 0.0037338000000000002 0.078)	//	25
		(-0.0035540000000000003 0.0039624000000000005 -0.078)	//	26
		(-0.0035540000000000003 0.0039624000000000005 0.078)	//	27
		(-0.022837541347542848 0.0042385293989366715 -0.078)	//	28
		(-0.022837541347542848 0.0042385293989366715 0.078)	//	29
		(-0.003556 -0.003556 -0.078)	//	30
		(-0.003556 -0.003556 0.078)	//	31
		(-0.003555 -0.0037338000000000002 -0.078)	//	32
		(-0.003555 -0.0037338000000000002 0.078)	//	33
		(-0.0035540000000000003 -0.0039624000000000005 -0.078)	//	34
		(-0.0035540000000000003 -0.0039624000000000005 0.078)	//	35
		(-0.022837541347542848 -0.0042385293989366715 -0.078)	//	36
		(-0.022837541347542848 -0.0042385293989366715 0.078)	//	37
);

blocks
(
		hex ( 4 28  8  0  5 29  9  1) (100 80 1) edgeGrading (50 1 1 50 1500 1500 1500 1500 1 1 1 1) // 0
		hex (28 26 10  8 29 27 11  9) (25 80 1) simpleGrading (0.1  1500  1) // 1
		hex (26 34 14 10 27 35 15 11) (80 80 1) simpleGrading ( 1  1500  1) // 2
		hex (34 36  2 14 35 37  3 15) (25 80 1) simpleGrading (10  1500  1) // 3
		hex (36  4  0  2 37  5  1  3) (100 80 1) edgeGrading (.02 1 1 .02 1500 1500 1500 1500 1 1 1 1) // 4
		hex (24 32 34 26 25 33 35 27) (80 5 1) simpleGrading ( 1  1  1) // 5
		hex (22 30 32 24 23 31 33 25) (80 5 1) simpleGrading ( 1  1  1) // 6
);

edges
(
		arc  8  0  90.0  (0 0 1)
		arc  9  1  90.0  (0 0 1)
		arc  0  2  90.0  (0 0 1)
		arc  1  3  90.0  (0 0 1)
		arc 14 10 180.0  (0 0 1)
		arc 15 11 180.0  (0 0 1)
		arc 30 22 180.0  (0 0 1)
		arc 31 23 180.0  (0 0 1)
		arc 32 24 180.0  (0 0 1)
		arc 33 25 180.0  (0 0 1)
		arc 34 26 180.0  (0 0 1)
		arc 35 27 180.0  (0 0 1)
		spline 4 28 (
							(-0.2999219   0.00093606 -0.078     )
							(-0.29969018  0.00186749 -0.078     )
							(-0.29930874  0.00279233 -0.078     )
							(-0.29878144  0.0037087  -0.078     )
							(-0.29811214  0.00461483 -0.078     )
							(-0.29730469  0.00550905 -0.078     )
							(-0.2963629   0.00638979 -0.078     )
							(-0.29529059  0.00725558 -0.078     )
							(-0.29409153  0.00810503 -0.078     )
							(-0.2927695   0.00893685 -0.078     )
							(-0.29132822  0.00974985 -0.078     )
							(-0.28977142  0.01054291 -0.078     )
							(-0.28810279  0.01131501 -0.078     )
							(-0.28632599  0.01206521 -0.078     )
							(-0.28444465  0.01279263 -0.078     )
							(-0.28246238  0.0134965  -0.078     )
							(-0.28038274  0.0141761  -0.078     )
							(-0.27820927  0.01483082 -0.078     )
							(-0.27594549  0.01546008 -0.078     )
							(-0.27359484  0.0160634  -0.078     )
							(-0.27116078  0.01664036 -0.078     )
							(-0.26864667  0.0171906  -0.078     )
							(-0.26605588  0.01771383 -0.078     )
							(-0.26339171  0.01820982 -0.078     )
							(-0.26065742  0.0186784  -0.078     )
							(-0.25785624  0.01911946 -0.078     )
							(-0.25499135  0.01953294 -0.078     )
							(-0.25206585  0.01991884 -0.078     )
							(-0.24908284  0.0202772  -0.078     )
							(-0.24604533  0.02060812 -0.078     )
							(-0.2429563   0.02091175 -0.078     )
							(-0.23981868  0.02118826 -0.078     )
							(-0.23663531  0.0214379  -0.078     )
							(-0.23340903  0.02166092 -0.078     )
							(-0.23014256  0.02185765 -0.078     )
							(-0.22683862  0.02202842 -0.078     )
							(-0.22349982  0.02217361 -0.078     )
							(-0.22012874  0.02229363 -0.078     )
							(-0.21672787  0.02238892 -0.078     )
							(-0.21329967  0.02245995 -0.078     )
							(-0.2098465   0.02250721 -0.078     )
							(-0.20637067  0.02253121 -0.078     )
							(-0.20287441  0.0225325  -0.078     )
							(-0.19935989  0.02251163 -0.078     )
							(-0.1958292   0.02246916 -0.078     )
							(-0.19228435  0.0224057  -0.078     )
							(-0.1887273   0.02232183 -0.078     )
							(-0.18515991  0.02221816 -0.078     )
							(-0.18158397  0.02209532 -0.078     )
							(-0.17800117  0.02195393 -0.078     )
							(-0.17441317  0.02179461 -0.078     )
							(-0.17082148  0.021618   -0.078     )
							(-0.16722759  0.02142472 -0.078     )
							(-0.16363286  0.0212154  -0.078     )
							(-0.16003859  0.02099066 -0.078     )
							(-0.15644597  0.02075112 -0.078     )
							(-0.15285611  0.02049739 -0.078     )
							(-0.14927004  0.02023004 -0.078     )
							(-0.14568868  0.01994968 -0.078     )
							(-0.14211286  0.01965687 -0.078     )
							(-0.13854332  0.01935214 -0.078     )
							(-0.13498071  0.01903604 -0.078     )
							(-0.13142555  0.01870907 -0.078     )
							(-0.12787831  0.01837171 -0.078     )
							(-0.1243393   0.01802442 -0.078     )
							(-0.12080878  0.01766763 -0.078     )
							(-0.11728688  0.01730173 -0.078     )
							(-0.11377362  0.0169271  -0.078     )
							(-0.11026893  0.01654406 -0.078     )
							(-0.10677261  0.01615291 -0.078     )
							(-0.10328438  0.0157539  -0.078     )
							(-0.09980381  0.01534724 -0.078     )
							(-0.09633039  0.01493311 -0.078     )
							(-0.09286348  0.01451163 -0.078     )
							(-0.08940233  0.01408289 -0.078     )
							(-0.08594607  0.0136469  -0.078     )
							(-0.08249371  0.01320364 -0.078     )
							(-0.07904413  0.01275304 -0.078     )
							(-0.07559612  0.01229496 -0.078     )
							(-0.07214832  0.01182921 -0.078     )
							(-0.06869925  0.01135554 -0.078     )
							(-0.0652473   0.01087363 -0.078     )
							(-0.06179074  0.0103831  -0.078     )
							(-0.05832772  0.0098835  -0.078     )
							(-0.05485624  0.00937433 -0.078     )
							(-0.05137418  0.00885498 -0.078     )
							(-0.04787929  0.00832481 -0.078     )
							(-0.04436917  0.00778307 -0.078     )
							(-0.0408413   0.00722895 -0.078     )
							(-0.03729301  0.00666156 -0.078     )
							(-0.03372151  0.00607993 -0.078     )
							(-0.03012384  0.00548299 -0.078     )
							(-0.02649693  0.0048696  -0.078     )

						)
		spline 4 36 (
							(-0.2999219  -0.00093606 -0.078     )
							(-0.29969018 -0.00186749 -0.078     )
							(-0.29930874 -0.00279233 -0.078     )
							(-0.29878144 -0.0037087  -0.078     )
							(-0.29811214 -0.00461483 -0.078     )
							(-0.29730469 -0.00550905 -0.078     )
							(-0.2963629  -0.00638979 -0.078     )
							(-0.29529059 -0.00725558 -0.078     )
							(-0.29409153 -0.00810503 -0.078     )
							(-0.2927695  -0.00893685 -0.078     )
							(-0.29132822 -0.00974985 -0.078     )
							(-0.28977142 -0.01054291 -0.078     )
							(-0.28810279 -0.01131501 -0.078     )
							(-0.28632599 -0.01206521 -0.078     )
							(-0.28444465 -0.01279263 -0.078     )
							(-0.28246238 -0.0134965  -0.078     )
							(-0.28038274 -0.0141761  -0.078     )
							(-0.27820927 -0.01483082 -0.078     )
							(-0.27594549 -0.01546008 -0.078     )
							(-0.27359484 -0.0160634  -0.078     )
							(-0.27116078 -0.01664036 -0.078     )
							(-0.26864667 -0.0171906  -0.078     )
							(-0.26605588 -0.01771383 -0.078     )
							(-0.26339171 -0.01820982 -0.078     )
							(-0.26065742 -0.0186784  -0.078     )
							(-0.25785624 -0.01911946 -0.078     )
							(-0.25499135 -0.01953294 -0.078     )
							(-0.25206585 -0.01991884 -0.078     )
							(-0.24908284 -0.0202772  -0.078     )
							(-0.24604533 -0.02060812 -0.078     )
							(-0.2429563  -0.02091175 -0.078     )
							(-0.23981868 -0.02118826 -0.078     )
							(-0.23663531 -0.0214379  -0.078     )
							(-0.23340903 -0.02166092 -0.078     )
							(-0.23014256 -0.02185765 -0.078     )
							(-0.22683862 -0.02202842 -0.078     )
							(-0.22349982 -0.02217361 -0.078     )
							(-0.22012874 -0.02229363 -0.078     )
							(-0.21672787 -0.02238892 -0.078     )
							(-0.21329967 -0.02245995 -0.078     )
							(-0.2098465  -0.02250721 -0.078     )
							(-0.20637067 -0.02253121 -0.078     )
							(-0.20287441 -0.0225325  -0.078     )
							(-0.19935989 -0.02251163 -0.078     )
							(-0.1958292  -0.02246916 -0.078     )
							(-0.19228435 -0.0224057  -0.078     )
							(-0.1887273  -0.02232183 -0.078     )
							(-0.18515991 -0.02221816 -0.078     )
							(-0.18158397 -0.02209532 -0.078     )
							(-0.17800117 -0.02195393 -0.078     )
							(-0.17441317 -0.02179461 -0.078     )
							(-0.17082148 -0.021618   -0.078     )
							(-0.16722759 -0.02142472 -0.078     )
							(-0.16363286 -0.0212154  -0.078     )
							(-0.16003859 -0.02099066 -0.078     )
							(-0.15644597 -0.02075112 -0.078     )
							(-0.15285611 -0.02049739 -0.078     )
							(-0.14927004 -0.02023004 -0.078     )
							(-0.14568868 -0.01994968 -0.078     )
							(-0.14211286 -0.01965687 -0.078     )
							(-0.13854332 -0.01935214 -0.078     )
							(-0.13498071 -0.01903604 -0.078     )
							(-0.13142555 -0.01870907 -0.078     )
							(-0.12787831 -0.01837171 -0.078     )
							(-0.1243393  -0.01802442 -0.078     )
							(-0.12080878 -0.01766763 -0.078     )
							(-0.11728688 -0.01730173 -0.078     )
							(-0.11377362 -0.0169271  -0.078     )
							(-0.11026893 -0.01654406 -0.078     )
							(-0.10677261 -0.01615291 -0.078     )
							(-0.10328438 -0.0157539  -0.078     )
							(-0.09980381 -0.01534724 -0.078     )
							(-0.09633039 -0.01493311 -0.078     )
							(-0.09286348 -0.01451163 -0.078     )
							(-0.08940233 -0.01408289 -0.078     )
							(-0.08594607 -0.0136469  -0.078     )
							(-0.08249371 -0.01320364 -0.078     )
							(-0.07904413 -0.01275304 -0.078     )
							(-0.07559612 -0.01229496 -0.078     )
							(-0.07214832 -0.01182921 -0.078     )
							(-0.06869925 -0.01135554 -0.078     )
							(-0.0652473  -0.01087363 -0.078     )
							(-0.06179074 -0.0103831  -0.078     )
							(-0.05832772 -0.0098835  -0.078     )
							(-0.05485624 -0.00937433 -0.078     )
							(-0.05137418 -0.00885498 -0.078     )
							(-0.04787929 -0.00832481 -0.078     )
							(-0.04436917 -0.00778307 -0.078     )
							(-0.0408413  -0.00722895 -0.078     )
							(-0.03729301 -0.00666156 -0.078     )
							(-0.03372151 -0.00607993 -0.078     )
							(-0.03012384 -0.00548299 -0.078     )
							(-0.02649693 -0.0048696  -0.078     )

						)
		spline 5 29 (
							(-0.2999219   0.00093606  0.078     )
							(-0.29969018  0.00186749  0.078     )
							(-0.29930874  0.00279233  0.078     )
							(-0.29878144  0.0037087   0.078     )
							(-0.29811214  0.00461483  0.078     )
							(-0.29730469  0.00550905  0.078     )
							(-0.2963629   0.00638979  0.078     )
							(-0.29529059  0.00725558  0.078     )
							(-0.29409153  0.00810503  0.078     )
							(-0.2927695   0.00893685  0.078     )
							(-0.29132822  0.00974985  0.078     )
							(-0.28977142  0.01054291  0.078     )
							(-0.28810279  0.01131501  0.078     )
							(-0.28632599  0.01206521  0.078     )
							(-0.28444465  0.01279263  0.078     )
							(-0.28246238  0.0134965   0.078     )
							(-0.28038274  0.0141761   0.078     )
							(-0.27820927  0.01483082  0.078     )
							(-0.27594549  0.01546008  0.078     )
							(-0.27359484  0.0160634   0.078     )
							(-0.27116078  0.01664036  0.078     )
							(-0.26864667  0.0171906   0.078     )
							(-0.26605588  0.01771383  0.078     )
							(-0.26339171  0.01820982  0.078     )
							(-0.26065742  0.0186784   0.078     )
							(-0.25785624  0.01911946  0.078     )
							(-0.25499135  0.01953294  0.078     )
							(-0.25206585  0.01991884  0.078     )
							(-0.24908284  0.0202772   0.078     )
							(-0.24604533  0.02060812  0.078     )
							(-0.2429563   0.02091175  0.078     )
							(-0.23981868  0.02118826  0.078     )
							(-0.23663531  0.0214379   0.078     )
							(-0.23340903  0.02166092  0.078     )
							(-0.23014256  0.02185765  0.078     )
							(-0.22683862  0.02202842  0.078     )
							(-0.22349982  0.02217361  0.078     )
							(-0.22012874  0.02229363  0.078     )
							(-0.21672787  0.02238892  0.078     )
							(-0.21329967  0.02245995  0.078     )
							(-0.2098465   0.02250721  0.078     )
							(-0.20637067  0.02253121  0.078     )
							(-0.20287441  0.0225325   0.078     )
							(-0.19935989  0.02251163  0.078     )
							(-0.1958292   0.02246916  0.078     )
							(-0.19228435  0.0224057   0.078     )
							(-0.1887273   0.02232183  0.078     )
							(-0.18515991  0.02221816  0.078     )
							(-0.18158397  0.02209532  0.078     )
							(-0.17800117  0.02195393  0.078     )
							(-0.17441317  0.02179461  0.078     )
							(-0.17082148  0.021618    0.078     )
							(-0.16722759  0.02142472  0.078     )
							(-0.16363286  0.0212154   0.078     )
							(-0.16003859  0.02099066  0.078     )
							(-0.15644597  0.02075112  0.078     )
							(-0.15285611  0.02049739  0.078     )
							(-0.14927004  0.02023004  0.078     )
							(-0.14568868  0.01994968  0.078     )
							(-0.14211286  0.01965687  0.078     )
							(-0.13854332  0.01935214  0.078     )
							(-0.13498071  0.01903604  0.078     )
							(-0.13142555  0.01870907  0.078     )
							(-0.12787831  0.01837171  0.078     )
							(-0.1243393   0.01802442  0.078     )
							(-0.12080878  0.01766763  0.078     )
							(-0.11728688  0.01730173  0.078     )
							(-0.11377362  0.0169271   0.078     )
							(-0.11026893  0.01654406  0.078     )
							(-0.10677261  0.01615291  0.078     )
							(-0.10328438  0.0157539   0.078     )
							(-0.09980381  0.01534724  0.078     )
							(-0.09633039  0.01493311  0.078     )
							(-0.09286348  0.01451163  0.078     )
							(-0.08940233  0.01408289  0.078     )
							(-0.08594607  0.0136469   0.078     )
							(-0.08249371  0.01320364  0.078     )
							(-0.07904413  0.01275304  0.078     )
							(-0.07559612  0.01229496  0.078     )
							(-0.07214832  0.01182921  0.078     )
							(-0.06869925  0.01135554  0.078     )
							(-0.0652473   0.01087363  0.078     )
							(-0.06179074  0.0103831   0.078     )
							(-0.05832772  0.0098835   0.078     )
							(-0.05485624  0.00937433  0.078     )
							(-0.05137418  0.00885498  0.078     )
							(-0.04787929  0.00832481  0.078     )
							(-0.04436917  0.00778307  0.078     )
							(-0.0408413   0.00722895  0.078     )
							(-0.03729301  0.00666156  0.078     )
							(-0.03372151  0.00607993  0.078     )
							(-0.03012384  0.00548299  0.078     )
							(-0.02649693  0.0048696   0.078     )

						)
		spline 5 37 (
							(-0.2999219  -0.00093606  0.078     )
							(-0.29969018 -0.00186749  0.078     )
							(-0.29930874 -0.00279233  0.078     )
							(-0.29878144 -0.0037087   0.078     )
							(-0.29811214 -0.00461483  0.078     )
							(-0.29730469 -0.00550905  0.078     )
							(-0.2963629  -0.00638979  0.078     )
							(-0.29529059 -0.00725558  0.078     )
							(-0.29409153 -0.00810503  0.078     )
							(-0.2927695  -0.00893685  0.078     )
							(-0.29132822 -0.00974985  0.078     )
							(-0.28977142 -0.01054291  0.078     )
							(-0.28810279 -0.01131501  0.078     )
							(-0.28632599 -0.01206521  0.078     )
							(-0.28444465 -0.01279263  0.078     )
							(-0.28246238 -0.0134965   0.078     )
							(-0.28038274 -0.0141761   0.078     )
							(-0.27820927 -0.01483082  0.078     )
							(-0.27594549 -0.01546008  0.078     )
							(-0.27359484 -0.0160634   0.078     )
							(-0.27116078 -0.01664036  0.078     )
							(-0.26864667 -0.0171906   0.078     )
							(-0.26605588 -0.01771383  0.078     )
							(-0.26339171 -0.01820982  0.078     )
							(-0.26065742 -0.0186784   0.078     )
							(-0.25785624 -0.01911946  0.078     )
							(-0.25499135 -0.01953294  0.078     )
							(-0.25206585 -0.01991884  0.078     )
							(-0.24908284 -0.0202772   0.078     )
							(-0.24604533 -0.02060812  0.078     )
							(-0.2429563  -0.02091175  0.078     )
							(-0.23981868 -0.02118826  0.078     )
							(-0.23663531 -0.0214379   0.078     )
							(-0.23340903 -0.02166092  0.078     )
							(-0.23014256 -0.02185765  0.078     )
							(-0.22683862 -0.02202842  0.078     )
							(-0.22349982 -0.02217361  0.078     )
							(-0.22012874 -0.02229363  0.078     )
							(-0.21672787 -0.02238892  0.078     )
							(-0.21329967 -0.02245995  0.078     )
							(-0.2098465  -0.02250721  0.078     )
							(-0.20637067 -0.02253121  0.078     )
							(-0.20287441 -0.0225325   0.078     )
							(-0.19935989 -0.02251163  0.078     )
							(-0.1958292  -0.02246916  0.078     )
							(-0.19228435 -0.0224057   0.078     )
							(-0.1887273  -0.02232183  0.078     )
							(-0.18515991 -0.02221816  0.078     )
							(-0.18158397 -0.02209532  0.078     )
							(-0.17800117 -0.02195393  0.078     )
							(-0.17441317 -0.02179461  0.078     )
							(-0.17082148 -0.021618    0.078     )
							(-0.16722759 -0.02142472  0.078     )
							(-0.16363286 -0.0212154   0.078     )
							(-0.16003859 -0.02099066  0.078     )
							(-0.15644597 -0.02075112  0.078     )
							(-0.15285611 -0.02049739  0.078     )
							(-0.14927004 -0.02023004  0.078     )
							(-0.14568868 -0.01994968  0.078     )
							(-0.14211286 -0.01965687  0.078     )
							(-0.13854332 -0.01935214  0.078     )
							(-0.13498071 -0.01903604  0.078     )
							(-0.13142555 -0.01870907  0.078     )
							(-0.12787831 -0.01837171  0.078     )
							(-0.1243393  -0.01802442  0.078     )
							(-0.12080878 -0.01766763  0.078     )
							(-0.11728688 -0.01730173  0.078     )
							(-0.11377362 -0.0169271   0.078     )
							(-0.11026893 -0.01654406  0.078     )
							(-0.10677261 -0.01615291  0.078     )
							(-0.10328438 -0.0157539   0.078     )
							(-0.09980381 -0.01534724  0.078     )
							(-0.09633039 -0.01493311  0.078     )
							(-0.09286348 -0.01451163  0.078     )
							(-0.08940233 -0.01408289  0.078     )
							(-0.08594607 -0.0136469   0.078     )
							(-0.08249371 -0.01320364  0.078     )
							(-0.07904413 -0.01275304  0.078     )
							(-0.07559612 -0.01229496  0.078     )
							(-0.07214832 -0.01182921  0.078     )
							(-0.06869925 -0.01135554  0.078     )
							(-0.0652473  -0.01087363  0.078     )
							(-0.06179074 -0.0103831   0.078     )
							(-0.05832772 -0.0098835   0.078     )
							(-0.05485624 -0.00937433  0.078     )
							(-0.05137418 -0.00885498  0.078     )
							(-0.04787929 -0.00832481  0.078     )
							(-0.04436917 -0.00778307  0.078     )
							(-0.0408413  -0.00722895  0.078     )
							(-0.03729301 -0.00666156  0.078     )
							(-0.03372151 -0.00607993  0.078     )
							(-0.03012384 -0.00548299  0.078     )
							(-0.02649693 -0.0048696   0.078     )

						)
);

boundary
(
    down
    {
        type patch;
        faces
        (
            ( 2 14 15  3)
        );
    }
    right
    {
        type patch;
        faces
        (
            (14 10 11 15)
        );
    }
    up
    {
        type patch;
        faces
        (
            (10  8  9 11)
        );
    }
    meanFlow
    {
        type patch;
        faces
        (
            ( 8  0  1  9)
            ( 0  2  3  1)
        );
    }

    coandaUpper
    {
        type patch;
        faces
        (
            (24 22 23 25)
        );
    }

    coandaLower
    {
        type patch;
        faces
        (
            (30 32 33 31)
        );
    }

    surface
    {
        type wall;
        faces
        (
            ( 4 28 29  5)
            ( 4 36 37  5)
            (28 26 27 29)
            (26 24 25 27)
            (22 30 31 23)
            (32 34 35 33)
            (34 36 37 35)
        );
    }


);
