/*---------------------------------*- C++ -*-----------------------------------*/
//    //////////////      ///////////////
//    //////////////      //////////////
//         ////           ////             /////       ////  //  /// //// ////
//         ////     ////  ///////////   ///    ///  ///    ///   ////  ///  ///
//  ////   ////           ///////////   ///    ///  ///    ///   ///   ///  ///
//   //// ////            ////          ///    ///  ///    ///   ///   ///  ///
//     /////              ////            /////       ///// ///  ///   ///  ///
/*---------------------------------*- C++ -*-----------------------------------*/

FoamFile
{
		version			2.0;
		format			ascii;
		class				dictionary;
		object			blockMeshDict;
}

// ***************************************************************************** //

scale				1;

vertices
(
		(-1.0 0.0 -0.5)	//	0
		(-1.0 0.0 0.5)	//	1
		(0.0 0.0 -0.5)	//	2
		(0.0 0.0 0.5)	//	3
		(6.0 25.0 -0.5)	//	4
		(6.0 25.0 0.5)	//	5
		(-25.709920264364882 0.0 -0.5)	//	6
		(-25.709920264364882 0.0 0.5)	//	7
		(6.0 -25.0 -0.5)	//	8
		(6.0 -25.0 0.5)	//	9
		(25.0 -25.0 -0.5)	//	10
		(25.0 -25.0 0.5)	//	11
		(25.0 0.0 -0.5)	//	12
		(25.0 0.0 0.5)	//	13
		(25.0 25.0 -0.5)	//	14
		(25.0 25.0 0.5)	//	15
		(0.0 0.0 -0.5)	//	16
		(0.0 0.0 0.5)	//	17
);

blocks
(
		hex ( 0  2  4  6  1  3  5  7 ) (80 40 1) edgeGrading (((.5 .5 20) (.5 .5 0.05)) ((.5 .5 1) (.5 .5 1.0))   ((.5 .5 1) (.5 .5 1.0)) ((.5 .5 20) (.5 .5 0.05)) 400 200 200 400 1 1 1 1) // 0
		hex ( 6  8 16  0  7  9 17  1 ) (80 40 1) edgeGrading (((.5 .5 1) (.5 .5 1.0)) ((.5 .5 20) (.5 .5 0.05))   ((.5 .5 20) (.5 .5 0.05)) ((.5 .5 1) (.5 .5 1.0)) 0.0025 0.005 0.005 0.0025 1 1 1 1) // 1
		hex ( 8 10 12 16  9 11 13 17 ) (40 40 1) edgeGrading ( 1 1500 1500 1 0.005 0.005 0.005 0.005 1 1 1 1 ) // 2
		hex ( 2 12 14  4  3 13 15  5 ) (40 40 1) edgeGrading ( 1500 1 1 1500 200 200 200 200 1 1 1 1 ) // 3
);

edges
(
		arc  4  6  103.4957332807958  (0 0 1)
		arc  5  7  103.4957332807958  (0 0 1)
		arc  6  8  103.4957332807958  (0 0 1)
		arc  7  9  103.4957332807958  (0 0 1)
		spline 0  2 (
							(-0.99963603  0.00280369 -0.5       )
							(-0.99857444  0.00548134 -0.5       )
							(-0.99685915  0.00803937 -0.5       )
							(-0.9945321   0.01048397 -0.5       )
							(-0.99163323  0.0128211  -0.5       )
							(-0.98820059  0.01505646 -0.5       )
							(-0.98427036  0.01719554 -0.5       )
							(-0.97987692  0.01924357 -0.5       )
							(-0.97505288  0.02120557 -0.5       )
							(-0.96982914  0.02308632 -0.5       )
							(-0.96423495  0.02489038 -0.5       )
							(-0.95829793  0.02662208 -0.5       )
							(-0.95204413  0.02828554 -0.5       )
							(-0.94549809  0.02988466 -0.5       )
							(-0.93868289  0.03142313 -0.5       )
							(-0.93162016  0.03290441 -0.5       )
							(-0.92433016  0.03433178 -0.5       )
							(-0.91683181  0.0357083  -0.5       )
							(-0.90914275  0.03703684 -0.5       )
							(-0.90127934  0.03832005 -0.5       )
							(-0.89325678  0.03956041 -0.5       )
							(-0.88508909  0.0407602  -0.5       )
							(-0.87678916  0.0419215  -0.5       )
							(-0.86836881  0.04304623 -0.5       )
							(-0.85983884  0.04413613 -0.5       )
							(-0.85120904  0.04519273 -0.5       )
							(-0.84248824  0.04621742 -0.5       )
							(-0.83368439  0.04721142 -0.5       )
							(-0.82480453  0.04817577 -0.5       )
							(-0.81585487  0.04911135 -0.5       )
							(-0.80684085  0.05001891 -0.5       )
							(-0.79776712  0.05089902 -0.5       )
							(-0.78863763  0.0517521  -0.5       )
							(-0.77945562  0.05257846 -0.5       )
							(-0.77022371  0.05337823 -0.5       )
							(-0.76094388  0.05415143 -0.5       )
							(-0.75161756  0.05489795 -0.5       )
							(-0.74224563  0.05561753 -0.5       )
							(-0.73282843  0.05630983 -0.5       )
							(-0.72336587  0.05697435 -0.5       )
							(-0.71385739  0.0576105  -0.5       )
							(-0.70430204  0.0582176  -0.5       )
							(-0.69469847  0.05879483 -0.5       )
							(-0.685045   0.0593413 -0.5      )
							(-0.67533964  0.05985603 -0.5       )
							(-0.6655801   0.06033792 -0.5       )
							(-0.65576386  0.06078584 -0.5       )
							(-0.64588816  0.06119855 -0.5       )
							(-0.63595004  0.06157473 -0.5       )
							(-0.62594639  0.06191302 -0.5       )
							(-0.61587395  0.062212   -0.5       )
							(-0.60572936  0.06247017 -0.5       )
							(-0.59550917  0.062686   -0.5       )
							(-0.58520987  0.06285791 -0.5       )
							(-0.57482792  0.06298429 -0.5       )
							(-0.56435978  0.06306349 -0.5       )
							(-0.55380193  0.06309384 -0.5       )
							(-0.54315089  0.06307365 -0.5       )
							(-0.53240323  0.0630012  -0.5       )
							(-0.52155566  0.06287478 -0.5       )
							(-0.51060494  0.06269268 -0.5       )
							(-0.49954802  0.06245318 -0.5       )
							(-0.48838198  0.06215458 -0.5       )
							(-0.47710409  0.06179519 -0.5       )
							(-0.46571181  0.06137334 -0.5       )
							(-0.45420283  0.06088742 -0.5       )
							(-0.44257508  0.06033581 -0.5       )
							(-0.43082674  0.05971697 -0.5       )
							(-0.41895628  0.05902939 -0.5       )
							(-0.40696246  0.05827162 -0.5       )
							(-0.39484435  0.05744228 -0.5       )
							(-0.38260136  0.05654005 -0.5       )
							(-0.37023325  0.05556369 -0.5       )
							(-0.35774013  0.05451205 -0.5       )
							(-0.34512251  0.05338406 -0.5       )
							(-0.33238128  0.05217876 -0.5       )
							(-0.31951773  0.05089528 -0.5       )
							(-0.3065336   0.04953288 -0.5       )
							(-0.29343104  0.04809093 -0.5       )
							(-0.28021268  0.04656894 -0.5       )
							(-0.26688159  0.04496652 -0.5       )
							(-0.25344132  0.04328346 -0.5       )
							(-0.23989591  0.04151968 -0.5       )
							(-0.22624988  0.03967527 -0.5       )
							(-0.21250829  0.03775048 -0.5       )
							(-0.1986767   0.03574572 -0.5       )
							(-0.18476118  0.0336616  -0.5       )
							(-0.17076836  0.03149891 -0.5       )
							(-0.15670542  0.02925864 -0.5       )
							(-0.14258006  0.02694199 -0.5       )
							(-0.12840057  0.02455036 -0.5       )
							(-0.11417579  0.02208537 -0.5       )
							(-0.09991514  0.0195489  -0.5       )
							(-0.08562861  0.01694303 -0.5       )
							(-0.07132679  0.0142701  -0.5       )
							(-0.05702084  0.01153272 -0.5       )
							(-0.04272253  0.00873374 -0.5       )
							(-0.02844422  0.00587631 -0.5       )
							(-0.01419885  0.00296382 -0.5       )

						)
		spline 1  3 (
							(-0.99963603  0.00280369  0.5       )
							(-0.99857444  0.00548134  0.5       )
							(-0.99685915  0.00803937  0.5       )
							(-0.9945321   0.01048397  0.5       )
							(-0.99163323  0.0128211   0.5       )
							(-0.98820059  0.01505646  0.5       )
							(-0.98427036  0.01719554  0.5       )
							(-0.97987692  0.01924357  0.5       )
							(-0.97505288  0.02120557  0.5       )
							(-0.96982914  0.02308632  0.5       )
							(-0.96423495  0.02489038  0.5       )
							(-0.95829793  0.02662208  0.5       )
							(-0.95204413  0.02828554  0.5       )
							(-0.94549809  0.02988466  0.5       )
							(-0.93868289  0.03142313  0.5       )
							(-0.93162016  0.03290441  0.5       )
							(-0.92433016  0.03433178  0.5       )
							(-0.91683181  0.0357083   0.5       )
							(-0.90914275  0.03703684  0.5       )
							(-0.90127934  0.03832005  0.5       )
							(-0.89325678  0.03956041  0.5       )
							(-0.88508909  0.0407602   0.5       )
							(-0.87678916  0.0419215   0.5       )
							(-0.86836881  0.04304623  0.5       )
							(-0.85983884  0.04413613  0.5       )
							(-0.85120904  0.04519273  0.5       )
							(-0.84248824  0.04621742  0.5       )
							(-0.83368439  0.04721142  0.5       )
							(-0.82480453  0.04817577  0.5       )
							(-0.81585487  0.04911135  0.5       )
							(-0.80684085  0.05001891  0.5       )
							(-0.79776712  0.05089902  0.5       )
							(-0.78863763  0.0517521   0.5       )
							(-0.77945562  0.05257846  0.5       )
							(-0.77022371  0.05337823  0.5       )
							(-0.76094388  0.05415143  0.5       )
							(-0.75161756  0.05489795  0.5       )
							(-0.74224563  0.05561753  0.5       )
							(-0.73282843  0.05630983  0.5       )
							(-0.72336587  0.05697435  0.5       )
							(-0.71385739  0.0576105   0.5       )
							(-0.70430204  0.0582176   0.5       )
							(-0.69469847  0.05879483  0.5       )
							(-0.685045   0.0593413  0.5      )
							(-0.67533964  0.05985603  0.5       )
							(-0.6655801   0.06033792  0.5       )
							(-0.65576386  0.06078584  0.5       )
							(-0.64588816  0.06119855  0.5       )
							(-0.63595004  0.06157473  0.5       )
							(-0.62594639  0.06191302  0.5       )
							(-0.61587395  0.062212    0.5       )
							(-0.60572936  0.06247017  0.5       )
							(-0.59550917  0.062686    0.5       )
							(-0.58520987  0.06285791  0.5       )
							(-0.57482792  0.06298429  0.5       )
							(-0.56435978  0.06306349  0.5       )
							(-0.55380193  0.06309384  0.5       )
							(-0.54315089  0.06307365  0.5       )
							(-0.53240323  0.0630012   0.5       )
							(-0.52155566  0.06287478  0.5       )
							(-0.51060494  0.06269268  0.5       )
							(-0.49954802  0.06245318  0.5       )
							(-0.48838198  0.06215458  0.5       )
							(-0.47710409  0.06179519  0.5       )
							(-0.46571181  0.06137334  0.5       )
							(-0.45420283  0.06088742  0.5       )
							(-0.44257508  0.06033581  0.5       )
							(-0.43082674  0.05971697  0.5       )
							(-0.41895628  0.05902939  0.5       )
							(-0.40696246  0.05827162  0.5       )
							(-0.39484435  0.05744228  0.5       )
							(-0.38260136  0.05654005  0.5       )
							(-0.37023325  0.05556369  0.5       )
							(-0.35774013  0.05451205  0.5       )
							(-0.34512251  0.05338406  0.5       )
							(-0.33238128  0.05217876  0.5       )
							(-0.31951773  0.05089528  0.5       )
							(-0.3065336   0.04953288  0.5       )
							(-0.29343104  0.04809093  0.5       )
							(-0.28021268  0.04656894  0.5       )
							(-0.26688159  0.04496652  0.5       )
							(-0.25344132  0.04328346  0.5       )
							(-0.23989591  0.04151968  0.5       )
							(-0.22624988  0.03967527  0.5       )
							(-0.21250829  0.03775048  0.5       )
							(-0.1986767   0.03574572  0.5       )
							(-0.18476118  0.0336616   0.5       )
							(-0.17076836  0.03149891  0.5       )
							(-0.15670542  0.02925864  0.5       )
							(-0.14258006  0.02694199  0.5       )
							(-0.12840057  0.02455036  0.5       )
							(-0.11417579  0.02208537  0.5       )
							(-0.09991514  0.0195489   0.5       )
							(-0.08562861  0.01694303  0.5       )
							(-0.07132679  0.0142701   0.5       )
							(-0.05702084  0.01153272  0.5       )
							(-0.04272253  0.00873374  0.5       )
							(-0.02844422  0.00587631  0.5       )
							(-0.01419885  0.00296382  0.5       )

						)
		spline 0 16 (
							(-0.99962412 -0.00258386 -0.5       )
							(-0.99852947 -0.00508422 -0.5       )
							(-0.99676386 -0.0075045  -0.5       )
							(-0.99437282 -0.0098479  -0.5       )
							(-0.99139972 -0.01211745 -0.5       )
							(-0.98788579 -0.01431603 -0.5       )
							(-0.98387017 -0.0164463  -0.5       )
							(-0.97939    -0.01851078 -0.5       )
							(-0.97448046 -0.0205118  -0.5       )
							(-0.96917481 -0.02245152 -0.5       )
							(-0.96350447 -0.02433195 -0.5       )
							(-0.95749905 -0.02615493 -0.5       )
							(-0.95118642 -0.02792213 -0.5       )
							(-0.94459276 -0.02963507 -0.5       )
							(-0.93774262 -0.03129511 -0.5       )
							(-0.93065892 -0.03290347 -0.5       )
							(-0.9233631  -0.03446121 -0.5       )
							(-0.91587507 -0.03596925 -0.5       )
							(-0.90821332 -0.03742839 -0.5       )
							(-0.90039494 -0.03883926 -0.5       )
							(-0.89243571 -0.04020239 -0.5       )
							(-0.88435008 -0.04151817 -0.5       )
							(-0.87615128 -0.04278685 -0.5       )
							(-0.86785135 -0.0440086  -0.5       )
							(-0.85946115 -0.04518346 -0.5       )
							(-0.85099046 -0.04631135 -0.5       )
							(-0.842448  -0.0473921 -0.5      )
							(-0.83384146 -0.04842545 -0.5       )
							(-0.82517758 -0.04941103 -0.5       )
							(-0.81646216 -0.0503484  -0.5       )
							(-0.80770012 -0.05123704 -0.5       )
							(-0.79889554 -0.05207635 -0.5       )
							(-0.79005169 -0.05286565 -0.5       )
							(-0.7811711  -0.05360423 -0.5       )
							(-0.77225555 -0.0542913  -0.5       )
							(-0.76330619 -0.05492603 -0.5       )
							(-0.75432349 -0.05550755 -0.5       )
							(-0.74530734 -0.05603494 -0.5       )
							(-0.73625705 -0.05650729 -0.5       )
							(-0.72717145 -0.05692362 -0.5       )
							(-0.71804882 -0.05728299 -0.5       )
							(-0.70888705 -0.05758441 -0.5       )
							(-0.69968358 -0.05782691 -0.5       )
							(-0.69043548 -0.05800955 -0.5       )
							(-0.68113948 -0.05813137 -0.5       )
							(-0.671792   -0.05819146 -0.5       )
							(-0.66238918 -0.05818896 -0.5       )
							(-0.65292693 -0.05812302 -0.5       )
							(-0.64340093 -0.05799286 -0.5       )
							(-0.6338067  -0.05779777 -0.5       )
							(-0.6241396 -0.0575371 -0.5      )
							(-0.61439488 -0.05721027 -0.5       )
							(-0.60456771 -0.0568168  -0.5       )
							(-0.59465319 -0.05635632 -0.5       )
							(-0.5846464  -0.05582856 -0.5       )
							(-0.57454243 -0.05523334 -0.5       )
							(-0.56433639 -0.05457066 -0.5       )
							(-0.55402344 -0.05384061 -0.5       )
							(-0.54359884 -0.05304346 -0.5       )
							(-0.53305794 -0.05217963 -0.5       )
							(-0.52239625 -0.05124969 -0.5       )
							(-0.51160942 -0.05025443 -0.5       )
							(-0.50069328 -0.04919479 -0.5       )
							(-0.48964389 -0.04807195 -0.5       )
							(-0.47845753 -0.04688727 -0.5       )
							(-0.46713073 -0.04564235 -0.5       )
							(-0.4556603  -0.04433903 -0.5       )
							(-0.44404334 -0.04297939 -0.5       )
							(-0.4322773  -0.04156578 -0.5       )
							(-0.42035992 -0.04010082 -0.5       )
							(-0.40828935 -0.0385874  -0.5       )
							(-0.39606407 -0.03702873 -0.5       )
							(-0.383683   -0.03542831 -0.5       )
							(-0.37114545 -0.03378996 -0.5       )
							(-0.35845116 -0.03211786 -0.5       )
							(-0.34560033 -0.03041652 -0.5       )
							(-0.33259362 -0.02869081 -0.5       )
							(-0.31943218 -0.02694597 -0.5       )
							(-0.30611764 -0.02518764 -0.5       )
							(-0.29265217 -0.02342186 -0.5       )
							(-0.27903843 -0.02165508 -0.5       )
							(-0.26527963 -0.01989417 -0.5       )
							(-0.25137955 -0.01814648 -0.5       )
							(-0.23734252 -0.01641976 -0.5       )
							(-0.22317343 -0.01472229 -0.5       )
							(-0.20887778 -0.0130628  -0.5       )
							(-0.19446166 -0.01145052 -0.5       )
							(-0.17993176 -0.00989523 -0.5       )
							(-0.1652954  -0.00840721 -0.5       )
							(-0.1505605  -0.00699729 -0.5       )
							(-0.13573565 -0.00567688 -0.5       )
							(-0.12083004 -0.00445795 -0.5       )
							(-0.10585354 -0.00335306 -0.5       )
							(-0.09081667 -0.0023754  -0.5       )
							(-0.07573058 -0.00153877 -0.5       )
							(-0.06060714 -0.00085762 -0.5       )
							(-4.54588299e-02 -3.47040936e-04 -5.00000000e-01)
							(-3.02988502e-02 -2.28154248e-05 -5.00000000e-01)
							(-1.51410591e-02  9.85898794e-05 -5.00000000e-01)

						)
		spline 1 17 (
							(-0.99962412 -0.00258386  0.5       )
							(-0.99852947 -0.00508422  0.5       )
							(-0.99676386 -0.0075045   0.5       )
							(-0.99437282 -0.0098479   0.5       )
							(-0.99139972 -0.01211745  0.5       )
							(-0.98788579 -0.01431603  0.5       )
							(-0.98387017 -0.0164463   0.5       )
							(-0.97939    -0.01851078  0.5       )
							(-0.97448046 -0.0205118   0.5       )
							(-0.96917481 -0.02245152  0.5       )
							(-0.96350447 -0.02433195  0.5       )
							(-0.95749905 -0.02615493  0.5       )
							(-0.95118642 -0.02792213  0.5       )
							(-0.94459276 -0.02963507  0.5       )
							(-0.93774262 -0.03129511  0.5       )
							(-0.93065892 -0.03290347  0.5       )
							(-0.9233631  -0.03446121  0.5       )
							(-0.91587507 -0.03596925  0.5       )
							(-0.90821332 -0.03742839  0.5       )
							(-0.90039494 -0.03883926  0.5       )
							(-0.89243571 -0.04020239  0.5       )
							(-0.88435008 -0.04151817  0.5       )
							(-0.87615128 -0.04278685  0.5       )
							(-0.86785135 -0.0440086   0.5       )
							(-0.85946115 -0.04518346  0.5       )
							(-0.85099046 -0.04631135  0.5       )
							(-0.842448  -0.0473921  0.5      )
							(-0.83384146 -0.04842545  0.5       )
							(-0.82517758 -0.04941103  0.5       )
							(-0.81646216 -0.0503484   0.5       )
							(-0.80770012 -0.05123704  0.5       )
							(-0.79889554 -0.05207635  0.5       )
							(-0.79005169 -0.05286565  0.5       )
							(-0.7811711  -0.05360423  0.5       )
							(-0.77225555 -0.0542913   0.5       )
							(-0.76330619 -0.05492603  0.5       )
							(-0.75432349 -0.05550755  0.5       )
							(-0.74530734 -0.05603494  0.5       )
							(-0.73625705 -0.05650729  0.5       )
							(-0.72717145 -0.05692362  0.5       )
							(-0.71804882 -0.05728299  0.5       )
							(-0.70888705 -0.05758441  0.5       )
							(-0.69968358 -0.05782691  0.5       )
							(-0.69043548 -0.05800955  0.5       )
							(-0.68113948 -0.05813137  0.5       )
							(-0.671792   -0.05819146  0.5       )
							(-0.66238918 -0.05818896  0.5       )
							(-0.65292693 -0.05812302  0.5       )
							(-0.64340093 -0.05799286  0.5       )
							(-0.6338067  -0.05779777  0.5       )
							(-0.6241396 -0.0575371  0.5      )
							(-0.61439488 -0.05721027  0.5       )
							(-0.60456771 -0.0568168   0.5       )
							(-0.59465319 -0.05635632  0.5       )
							(-0.5846464  -0.05582856  0.5       )
							(-0.57454243 -0.05523334  0.5       )
							(-0.56433639 -0.05457066  0.5       )
							(-0.55402344 -0.05384061  0.5       )
							(-0.54359884 -0.05304346  0.5       )
							(-0.53305794 -0.05217963  0.5       )
							(-0.52239625 -0.05124969  0.5       )
							(-0.51160942 -0.05025443  0.5       )
							(-0.50069328 -0.04919479  0.5       )
							(-0.48964389 -0.04807195  0.5       )
							(-0.47845753 -0.04688727  0.5       )
							(-0.46713073 -0.04564235  0.5       )
							(-0.4556603  -0.04433903  0.5       )
							(-0.44404334 -0.04297939  0.5       )
							(-0.4322773  -0.04156578  0.5       )
							(-0.42035992 -0.04010082  0.5       )
							(-0.40828935 -0.0385874   0.5       )
							(-0.39606407 -0.03702873  0.5       )
							(-0.383683   -0.03542831  0.5       )
							(-0.37114545 -0.03378996  0.5       )
							(-0.35845116 -0.03211786  0.5       )
							(-0.34560033 -0.03041652  0.5       )
							(-0.33259362 -0.02869081  0.5       )
							(-0.31943218 -0.02694597  0.5       )
							(-0.30611764 -0.02518764  0.5       )
							(-0.29265217 -0.02342186  0.5       )
							(-0.27903843 -0.02165508  0.5       )
							(-0.26527963 -0.01989417  0.5       )
							(-0.25137955 -0.01814648  0.5       )
							(-0.23734252 -0.01641976  0.5       )
							(-0.22317343 -0.01472229  0.5       )
							(-0.20887778 -0.0130628   0.5       )
							(-0.19446166 -0.01145052  0.5       )
							(-0.17993176 -0.00989523  0.5       )
							(-0.1652954  -0.00840721  0.5       )
							(-0.1505605  -0.00699729  0.5       )
							(-0.13573565 -0.00567688  0.5       )
							(-0.12083004 -0.00445795  0.5       )
							(-0.10585354 -0.00335306  0.5       )
							(-0.09081667 -0.0023754   0.5       )
							(-0.07573058 -0.00153877  0.5       )
							(-0.06060714 -0.00085762  0.5       )
							(-4.54588299e-02 -3.47040936e-04  5.00000000e-01)
							(-3.02988502e-02 -2.28154248e-05  5.00000000e-01)
							(-1.51410591e-02  9.85898794e-05  5.00000000e-01)

						)
);

boundary
(
    down
    {
        type patch;
        faces
        (
            ( 8 10 11  9 )
        );
    }
    up
    {
        type patch;
        faces
        (
            ( 4 14 15  5 )
        );
    }
    right
    {
        type patch;
        faces
        (
            ( 10 12 13 11 )
            ( 12 14 15 13 )
        );
    }
    meanFlow
    {
        type patch;
        faces
        (
            ( 6  4  5  7)
            ( 6  8  9  7)
        );
    }

    surface
    {
        type wall;
        faces
        (
            ( 0  2  3  1)
            ( 0 16 17  1)
        );
    }
    interface1
    {
        type patch;
        faces
        (
            ( 2 12 13  3)
        );
    }

    interface2
    {
        type patch;
        faces
        (
            (16 12 13 17)
        );
    }
);

mergePatchPairs
(
    (interface1 interface2)
);
