/*---------------------------------*- C++ -*-----------------------------------*/
//    //////////////      ///////////////
//    //////////////      //////////////
//         ////           ////             /////       ////  //  /// //// ////
//         ////     ////  ///////////   ///    ///  ///    ///   ////  ///  ///
//  ////   ////           ///////////   ///    ///  ///    ///   ///   ///  ///
//   //// ////            ////          ///    ///  ///    ///   ///   ///  ///
//     /////              ////            /////       ///// ///  ///   ///  ///
/*---------------------------------*- C++ -*-----------------------------------*/

FoamFile
{
		version			2.0;
		format			ascii;
		class				dictionary;
		object			blockMeshDict;
}

// ***************************************************************************** //

scale				1;

vertices
(
		(0.29163069999999996 0.003556 -0.078)	//	0
		(0.29163069999999996 0.003556 0.078)	//	1
		(0.29163070999999996 0.0037846 -0.078)	//	2
		(0.29163070999999996 0.0037846 0.078)	//	3
		(0.29163071999999995 0.0040132 -0.078)	//	4
		(0.29163071999999995 0.0040132 0.078)	//	5
		(0.27163069999999995 0.0048132999999999995 -0.078)	//	6
		(0.27163069999999995 0.0048132999999999995 0.078)	//	7
		(0.0048132999999999995 0.0048132999999999995 -0.078)	//	8
		(0.0048132999999999995 0.0048132999999999995 0.078)	//	9
		(0.0048132999999999995 -0.0048132999999999995 -0.078)	//	10
		(0.0048132999999999995 -0.0048132999999999995 0.078)	//	11
		(0.27163069999999995 -0.0048132999999999995 -0.078)	//	12
		(0.27163069999999995 -0.0048132999999999995 0.078)	//	13
		(0.29163071999999995 -0.0040132 -0.078)	//	14
		(0.29163071999999995 -0.0040132 0.078)	//	15
		(0.29163070999999996 -0.0037846 -0.078)	//	16
		(0.29163070999999996 -0.0037846 0.078)	//	17
		(0.29163069999999996 -0.003556 -0.078)	//	18
		(0.29163069999999996 -0.003556 0.078)	//	19
		(0.0048132999999999995 -5.0 -0.078)	//	20
		(0.0048132999999999995 -5.0 0.078)	//	21
		(0.27163069999999995 -5.0 -0.078)	//	22
		(0.27163069999999995 -5.0 0.078)	//	23
		(0.29163072999999995 -5.0 -0.078)	//	24
		(0.29163072999999995 -5.0 0.078)	//	25
		(0.29163072999999995 5.0 -0.078)	//	26
		(0.29163072999999995 5.0 0.078)	//	27
		(0.27163069999999995 5.0 -0.078)	//	28
		(0.27163069999999995 5.0 0.078)	//	29
		(0.0048132999999999995 5.0 -0.078)	//	30
		(0.0048132999999999995 5.0 0.078)	//	31
		(0.0 0.0 -0.078)	//	32
		(0.0 0.0 0.078)	//	33
		(-5.0 0.0 -0.078)	//	34
		(-5.0 0.0 0.078)	//	35
		(0.0 0.0 -0.078)	//	36
		(0.0 0.0 0.078)	//	37
		(0.0 0.0 -0.078)	//	38
		(0.0 0.0 0.078)	//	39
		(0.0 0.0 -0.078)	//	40
		(0.0 0.0 0.078)	//	41
		(0.0 0.0 -0.078)	//	42
		(0.0 0.0 0.078)	//	43
);

blocks
(
		hex (16  2  0 18 17  3  1 19) (150 150 1) simpleGrading ( 1   1  1) // 0
		hex (14  4  2 16 15  5  3 17) (150 150 1) simpleGrading ( 1   1  1) // 1
		hex (24 26  4 14 25 27  5 15) (150 400 1) edgeGrading (((0.5 0.5 1) (0.5 0.5 1.0))  1 1 ((0.5 0.5 1) (0.5 0.5 1.0)) 0.0025 0.0025 0.0025 0.0025  1 1 1 1) // 2
		hex (26 28  6  4 27 29  7  5) (80 400 1) simpleGrading (4  0.0025  1) // 3
		hex (28 30  8  6 29 31  9  7) (300 400 1) simpleGrading (((0.5 0.5  1) (0.5 0.5 1))  0.0025  1) // 4
		hex (30 34 32  8 31 35 33  9) (150 400 1) edgeGrading ( 1.0 1 1 1 0.0025 0.0025 0.0025 0.0025  1 1 1 1) // 6
		hex (34 20 10 32 35 21 11 33) (150 400 1) edgeGrading ( 1 1 1 1.0 0.0025 0.0025 0.0025 0.0025  1 1 1 1) // 6
		hex (20 22 12 10 21 23 13 11) (300 400 1) simpleGrading (((0.5 0.5 1) (0.5 0.5 1))  0.0025  1) // 7
		hex (22 24 14 12 23 25 15 13) (80 400 1) simpleGrading (0.25  0.0025  1) //8
);

edges
(
		arc   0 18 180.0 (0 0 -1)
		arc   1 19 180.0 (0 0 -1)
		arc   2 16 180.0 (0 0 -1)
		arc   3 17 180.0 (0 0 -1)
		arc   4 14 180.0 (0 0 -1)
		arc   5 15 180.0 (0 0 -1)
		arc  30 34  90.0 (0 0  1)
		arc  31 35  90.0 (0 0  1)
		arc  34 20  90.0 (0 0  1)
		arc  35 21  90.0 (0 0  1)
		arc  32  8  90.0 (0 0 -1)
		arc  33  9  90.0 (0 0 -1)
		arc  32 10  90.0 (0 0  1)
		arc  33 11  90.0 (0 0  1)
		arc   4  6    5.873357228162335 (0 0  1)
		arc   5  7    5.873357228162335 (0 0  1)
		arc  12 14    5.873357228162335 (0 0  1)
		arc  13 15    5.873357228162335 (0 0  1)
		arc  26 24 180.0 (0 0 -1)
		arc  27 25 180.0 (0 0 -1)
);

boundary
(
    down
    {
        type patch;
        faces
        (
            (20 22 23 21)
            (22 24 25 23)
        );
    }
    right
    {
        type patch;
        faces
        (
            (24 26 27 25)
        );
    }
    up
    {
        type patch;
        faces
        (
            (26 28 29 27)
            (28 30 31 29)
        );
    }
    meanFlow
    {
        type patch;
        faces
        (
            (30 34 35 31)
            (34 20 21 35)
        );
    }

    surface
    {
        type wall;
        faces
        (
            ( 8 32 33  9)
            (32 10 11 33)
            (10 12 13 11)
            (12 14 15 13)
            (14 16 17 15)
            ( 2  4  5  3)
            ( 4  6  7  5)
            ( 6  8  9  7)
            (18  0  1 19)
        );
    }


    coandaUpper
    {
        type patch;
        faces
        (
            ( 0  2  3  1)
        );
    }
    coandaLower
    {
        type patch;
        faces
        (
            (16 18 19 17)
        );
    }
);
