/*--------------------------------*- C++ -*----------------------------------*\
  =========                 |
  \\      /  F ield         | OpenFOAM: The Open Source CFD Toolbox
   \\    /   O peration     | Website:  https://openfoam.org
    \\  /    A nd           | Version:  9
     \\/     M anipulation  |
\*---------------------------------------------------------------------------*/
FoamFile
{
    format      ascii;
    class       polyBoundaryMesh;
    location    "constant/polyMesh";
    object      boundary;
}
// * * * * * * * * * * * * * * * * * * * * * * * * * * * * * * * * * * * * * //

6
(
    down
    {
        type            symmetryPlane;
        inGroups        List<word> 1(symmetryPlane);
        nFaces          100;
        startFace       11840;
    }
    right
    {
        type            patch;
        nFaces          60;
        startFace       11940;
    }
    up
    {
        type            symmetryPlane;
        inGroups        List<word> 1(symmetryPlane);
        nFaces          100;
        startFace       12000;
    }
    left
    {
        type            patch;
        nFaces          60;
        startFace       12100;
    }
    front
    {
        type            empty;
        inGroups        List<word> 1(empty);
        nFaces          6000;
        startFace       12160;
    }
    back
    {
        type            empty;
        inGroups        List<word> 1(empty);
        nFaces          6000;
        startFace       18160;
    }
)

// ************************************************************************* //
