/*--------------------------------*- C++ -*----------------------------------*\
  =========                 |
  \\      /  F ield         | OpenFOAM: The Open Source CFD Toolbox
   \\    /   O peration     | Website:  https://openfoam.org
    \\  /    A nd           | Version:  9
     \\/     M anipulation  |
\*---------------------------------------------------------------------------*/
FoamFile
{
    format      ascii;
    class       polyBoundaryMesh;
    location    "constant/polyMesh";
    object      boundary;
}
// * * * * * * * * * * * * * * * * * * * * * * * * * * * * * * * * * * * * * //

11
(
    down
    {
        type            patch;
        nFaces          0;
        startFace       25013;
    }
    right
    {
        type            patch;
        nFaces          0;
        startFace       25013;
    }
    up
    {
        type            patch;
        nFaces          163;
        startFace       25013;
    }
    meanFlow
    {
        type            patch;
        nFaces          0;
        startFace       25176;
    }
    surface
    {
        type            wall;
        inGroups        List<word> 1(wall);
        nFaces          155;
        startFace       25176;
    }
    surfaceInner
    {
        type            wall;
        inGroups        List<word> 1(wall);
        nFaces          0;
        startFace       25331;
    }
    coandaInlet
    {
        type            patch;
        nFaces          0;
        startFace       25331;
    }
    defaultFaces
    {
        type            empty;
        inGroups        List<word> 1(empty);
        nFaces          25256;
        startFace       25331;
    }
    procBoundary4to1
    {
        type            processor;
        inGroups        List<word> 1(processor);
        nFaces          2;
        startFace       50587;
        matchTolerance  0.0001;
        myProcNo        4;
        neighbProcNo    1;
    }
    procBoundary4to3
    {
        type            processor;
        inGroups        List<word> 1(processor);
        nFaces          81;
        startFace       50589;
        matchTolerance  0.0001;
        myProcNo        4;
        neighbProcNo    3;
    }
    procBoundary4to5
    {
        type            processor;
        inGroups        List<word> 1(processor);
        nFaces          85;
        startFace       50670;
        matchTolerance  0.0001;
        myProcNo        4;
        neighbProcNo    5;
    }
)

// ************************************************************************* //
