/*--------------------------------*- C++ -*----------------------------------*\
  =========                 |
  \\      /  F ield         | OpenFOAM: The Open Source CFD Toolbox
   \\    /   O peration     | Website:  https://openfoam.org
    \\  /    A nd           | Version:  8
     \\/     M anipulation  |
\*---------------------------------------------------------------------------*/
FoamFile
{
    version     2.0;
    format      ascii;
    class       polyBoundaryMesh;
    location    "constant/polyMesh";
    object      boundary;
}
// * * * * * * * * * * * * * * * * * * * * * * * * * * * * * * * * * * * * * //

7
(
    down
    {
        type            symmetryPlane;
        inGroups        List<word> 1(symmetryPlane);
        nFaces          790;
        startFace       1380180;
    }
    right
    {
        type            patch;
        nFaces          940;
        startFace       1380970;
    }
    up
    {
        type            symmetryPlane;
        inGroups        List<word> 1(symmetryPlane);
        nFaces          790;
        startFace       1381910;
    }
    left
    {
        type            patch;
        nFaces          960;
        startFace       1382700;
    }
    cylinder
    {
        type            wall;
        inGroups        List<word> 1(wall);
        nFaces          900;
        startFace       1383660;
    }
    slot
    {
        type            patch;
        nFaces          60;
        startFace       1384560;
    }
    defaultFaces
    {
        type            empty;
        inGroups        List<word> 1(empty);
        nFaces          1382400;
        startFace       1384620;
    }
)

// ************************************************************************* //
