/*--------------------------------*- C++ -*----------------------------------*\
  =========                 |
  \\      /  F ield         | OpenFOAM: The Open Source CFD Toolbox
   \\    /   O peration     | Website:  https://openfoam.org
    \\  /    A nd           | Version:  8
     \\/     M anipulation  |
\*---------------------------------------------------------------------------*/
FoamFile
{
    version     2.0;
    format      ascii;
    class       dictionary;
    location    "1.03895/uniform";
    object      time;
}
// * * * * * * * * * * * * * * * * * * * * * * * * * * * * * * * * * * * * * //

value           1.03895000000096438;

name            "1.03895";

index           41558;

deltaT          2.5e-05;

deltaT0         2.5e-05;


// ************************************************************************* //
