/*--------------------------------*- C++ -*----------------------------------*\
  =========                 |
  \\      /  F ield         | OpenFOAM: The Open Source CFD Toolbox
   \\    /   O peration     | Website:  https://openfoam.org
    \\  /    A nd           | Version:  8
     \\/     M anipulation  |
\*---------------------------------------------------------------------------*/
FoamFile
{
    version     2.0;
    format      ascii;
    class       polyBoundaryMesh;
    location    "1.5/polyMesh";
    object      boundary;
}
// * * * * * * * * * * * * * * * * * * * * * * * * * * * * * * * * * * * * * //

6
(
    topAndBottom
    {
        type            patch;
        nFaces          554;
        startFace       1060336;
    }
    inlet
    {
        type            patch;
        nFaces          148;
        startFace       1060890;
    }
    outlet
    {
        type            patch;
        nFaces          1408;
        startFace       1061038;
    }
    symFront
    {
        type            patch;
        nFaces          256;
        startFace       1062446;
    }
    symBack
    {
        type            symmetryPlane;
        inGroups        List<word> 1(symmetryPlane);
        nFaces          3441;
        startFace       1062702;
    }
    wing
    {
        type            wall;
        inGroups        List<word> 1(wall);
        nFaces          22975;
        startFace       1066143;
    }
)

// ************************************************************************* //
