/*--------------------------------*- C++ -*----------------------------------*\
  =========                 |
  \\      /  F ield         | OpenFOAM: The Open Source CFD Toolbox
   \\    /   O peration     | Website:  https://openfoam.org
    \\  /    A nd           | Version:  9
     \\/     M anipulation  |
\*---------------------------------------------------------------------------*/
FoamFile
{
    format      ascii;
    class       polyBoundaryMesh;
    location    "constant/polyMesh";
    object      boundary;
}
// * * * * * * * * * * * * * * * * * * * * * * * * * * * * * * * * * * * * * //

6
(
    down
    {
        type            patch;
        nFaces          80;
        startFace       76320;
    }
    up
    {
        type            patch;
        nFaces          80;
        startFace       76400;
    }
    right
    {
        type            patch;
        nFaces          160;
        startFace       76480;
    }
    meanFlow
    {
        type            patch;
        nFaces          320;
        startFace       76640;
    }
    surface
    {
        type            wall;
        inGroups        List<word> 1(wall);
        nFaces          320;
        startFace       76960;
    }
    defaultFaces
    {
        type            empty;
        inGroups        List<word> 1(empty);
        nFaces          76800;
        startFace       77280;
    }
)

// ************************************************************************* //
