/*--------------------------------*- C++ -*----------------------------------*\
  =========                 |
  \\      /  F ield         | OpenFOAM: The Open Source CFD Toolbox
   \\    /   O peration     | Website:  https://openfoam.org
    \\  /    A nd           | Version:  9
     \\/     M anipulation  |
\*---------------------------------------------------------------------------*/
FoamFile
{
    format      ascii;
    class       polyBoundaryMesh;
    location    "constant/polyMesh";
    object      boundary;
}
// * * * * * * * * * * * * * * * * * * * * * * * * * * * * * * * * * * * * * //

6
(
    down
    {
        type            patch;
        nFaces          50;
        startFace       17720;
    }
    up
    {
        type            patch;
        nFaces          50;
        startFace       17770;
    }
    right
    {
        type            patch;
        nFaces          60;
        startFace       17820;
    }
    meanFlow
    {
        type            patch;
        nFaces          200;
        startFace       17880;
    }
    surface
    {
        type            wall;
        inGroups        List<word> 1(wall);
        nFaces          200;
        startFace       18080;
    }
    defaultFaces
    {
        type            empty;
        inGroups        List<word> 1(empty);
        nFaces          18000;
        startFace       18280;
    }
)

// ************************************************************************* //
