/*--------------------------------*- C++ -*----------------------------------*\
  =========                 |
  \\      /  F ield         | OpenFOAM: The Open Source CFD Toolbox
   \\    /   O peration     | Website:  https://openfoam.org
    \\  /    A nd           | Version:  10
     \\/     M anipulation  |
\*---------------------------------------------------------------------------*/
FoamFile
{
    format      ascii;
    class       polyBoundaryMesh;
    location    "constant/polyMesh";
    object      boundary;
}
// * * * * * * * * * * * * * * * * * * * * * * * * * * * * * * * * * * * * * //

6
(
    down
    {
        type            patch;
        nFaces          60;
        startFace       28460;
    }
    up
    {
        type            patch;
        nFaces          60;
        startFace       28520;
    }
    right
    {
        type            patch;
        nFaces          80;
        startFace       28580;
    }
    meanFlow
    {
        type            patch;
        nFaces          240;
        startFace       28660;
    }
    surface
    {
        type            wall;
        inGroups        List<word> 1(wall);
        nFaces          240;
        startFace       28900;
    }
    defaultFaces
    {
        type            empty;
        inGroups        List<word> 1(empty);
        nFaces          28800;
        startFace       29140;
    }
)

// ************************************************************************* //
