/*--------------------------------*- C++ -*----------------------------------*\
  =========                 |
  \\      /  F ield         | OpenFOAM: The Open Source CFD Toolbox
   \\    /   O peration     | Website:  https://openfoam.org
    \\  /    A nd           | Version:  10
     \\/     M anipulation  |
\*---------------------------------------------------------------------------*/
FoamFile
{
    format      ascii;
    class       polyBoundaryMesh;
    location    "constant/polyMesh";
    object      boundary;
}
// * * * * * * * * * * * * * * * * * * * * * * * * * * * * * * * * * * * * * //

6
(
    down
    {
        type            patch;
        nFaces          40;
        startFace       18960;
    }
    up
    {
        type            patch;
        nFaces          40;
        startFace       19000;
    }
    right
    {
        type            patch;
        nFaces          80;
        startFace       19040;
    }
    meanFlow
    {
        type            patch;
        nFaces          160;
        startFace       19120;
    }
    surface
    {
        type            wall;
        inGroups        List<word> 1(wall);
        nFaces          160;
        startFace       19280;
    }
    defaultFaces
    {
        type            empty;
        inGroups        List<word> 1(empty);
        nFaces          19200;
        startFace       19440;
    }
)

// ************************************************************************* //
