/*--------------------------------*- C++ -*----------------------------------*\
  =========                 |
  \\      /  F ield         | OpenFOAM: The Open Source CFD Toolbox
   \\    /   O peration     | Website:  https://openfoam.org
    \\  /    A nd           | Version:  9
     \\/     M anipulation  |
\*---------------------------------------------------------------------------*/
FoamFile
{
    format      ascii;
    class       polyBoundaryMesh;
    location    "constant/polyMesh";
    object      boundary;
}
// * * * * * * * * * * * * * * * * * * * * * * * * * * * * * * * * * * * * * //

10
(
    down
    {
        type            patch;
        nFaces          61;
        startFace       23876;
    }
    right
    {
        type            patch;
        nFaces          0;
        startFace       23937;
    }
    up
    {
        type            patch;
        nFaces          0;
        startFace       23937;
    }
    meanFlow
    {
        type            patch;
        nFaces          80;
        startFace       23937;
    }
    surface
    {
        type            wall;
        inGroups        List<word> 1(wall);
        nFaces          188;
        startFace       24017;
    }
    surfaceInner
    {
        type            wall;
        inGroups        List<word> 1(wall);
        nFaces          0;
        startFace       24205;
    }
    coandaInlet
    {
        type            patch;
        nFaces          0;
        startFace       24205;
    }
    defaultFaces
    {
        type            empty;
        inGroups        List<word> 1(empty);
        nFaces          24144;
        startFace       24205;
    }
    procBoundary0to1
    {
        type            processor;
        inGroups        List<word> 1(processor);
        nFaces          81;
        startFace       48349;
        matchTolerance  0.0001;
        myProcNo        0;
        neighbProcNo    1;
    }
    procBoundary0to3
    {
        type            processor;
        inGroups        List<word> 1(processor);
        nFaces          126;
        startFace       48430;
        matchTolerance  0.0001;
        myProcNo        0;
        neighbProcNo    3;
    }
)

// ************************************************************************* //
