/*--------------------------------*- C++ -*----------------------------------*\
  =========                 |
  \\      /  F ield         | OpenFOAM: The Open Source CFD Toolbox
   \\    /   O peration     | Website:  https://openfoam.org
    \\  /    A nd           | Version:  9
     \\/     M anipulation  |
\*---------------------------------------------------------------------------*/
FoamFile
{
    format      ascii;
    class       polyBoundaryMesh;
    location    "constant/polyMesh";
    object      boundary;
}
// * * * * * * * * * * * * * * * * * * * * * * * * * * * * * * * * * * * * * //

10
(
    down
    {
        type            patch;
        nFaces          61;
        startFace       12471;
    }
    right
    {
        type            patch;
        nFaces          0;
        startFace       12532;
    }
    up
    {
        type            patch;
        nFaces          0;
        startFace       12532;
    }
    meanFlow
    {
        type            patch;
        nFaces          50;
        startFace       12532;
    }
    surface
    {
        type            wall;
        inGroups        List<word> 1(wall);
        nFaces          135;
        startFace       12582;
    }
    surfaceInner
    {
        type            wall;
        inGroups        List<word> 1(wall);
        nFaces          46;
        startFace       12717;
    }
    coandaInlet
    {
        type            patch;
        nFaces          20;
        startFace       12763;
    }
    defaultFaces
    {
        type            empty;
        inGroups        List<word> 1(empty);
        nFaces          12704;
        startFace       12783;
    }
    procBoundary0to1
    {
        type            processor;
        inGroups        List<word> 1(processor);
        nFaces          81;
        startFace       25487;
        matchTolerance  0.0001;
        myProcNo        0;
        neighbProcNo    1;
    }
    procBoundary0to2
    {
        type            processor;
        inGroups        List<word> 1(processor);
        nFaces          73;
        startFace       25568;
        matchTolerance  0.0001;
        myProcNo        0;
        neighbProcNo    2;
    }
)

// ************************************************************************* //
