/*--------------------------------*- C++ -*----------------------------------*\
  =========                 |
  \\      /  F ield         | OpenFOAM: The Open Source CFD Toolbox
   \\    /   O peration     | Website:  https://openfoam.org
    \\  /    A nd           | Version:  9
     \\/     M anipulation  |
\*---------------------------------------------------------------------------*/
FoamFile
{
    format      ascii;
    class       polyBoundaryMesh;
    location    "constant/polyMesh";
    object      boundary;
}
// * * * * * * * * * * * * * * * * * * * * * * * * * * * * * * * * * * * * * //

10
(
    down
    {
        type            patch;
        nFaces          56;
        startFace       14105;
    }
    right
    {
        type            patch;
        nFaces          0;
        startFace       14161;
    }
    up
    {
        type            patch;
        nFaces          0;
        startFace       14161;
    }
    meanFlow
    {
        type            patch;
        nFaces          60;
        startFace       14161;
    }
    surface
    {
        type            wall;
        inGroups        List<word> 1(wall);
        nFaces          143;
        startFace       14221;
    }
    surfaceInner
    {
        type            wall;
        inGroups        List<word> 1(wall);
        nFaces          0;
        startFace       14364;
    }
    coandaInlet
    {
        type            patch;
        nFaces          0;
        startFace       14364;
    }
    defaultFaces
    {
        type            empty;
        inGroups        List<word> 1(empty);
        nFaces          14308;
        startFace       14364;
    }
    procBoundary0to1
    {
        type            processor;
        inGroups        List<word> 1(processor);
        nFaces          60;
        startFace       28672;
        matchTolerance  0.0001;
        myProcNo        0;
        neighbProcNo    1;
    }
    procBoundary0to3
    {
        type            processor;
        inGroups        List<word> 1(processor);
        nFaces          87;
        startFace       28732;
        matchTolerance  0.0001;
        myProcNo        0;
        neighbProcNo    3;
    }
)

// ************************************************************************* //
