/*--------------------------------*- C++ -*----------------------------------*\
  =========                 |
  \\      /  F ield         | OpenFOAM: The Open Source CFD Toolbox
   \\    /   O peration     | Website:  https://openfoam.org
    \\  /    A nd           | Version:  8
     \\/     M anipulation  |
\*---------------------------------------------------------------------------*/
FoamFile
{
    version     2.0;
    format      ascii;
    class       polyBoundaryMesh;
    location    "3e-05/polyMesh";
    object      boundary;
}
// * * * * * * * * * * * * * * * * * * * * * * * * * * * * * * * * * * * * * //

7
(
    down
    {
        type            symmetryPlane;
        inGroups        List<word> 1(symmetryPlane);
        nFaces          400;
        startFace       799080;
    }
    right
    {
        type            patch;
        nFaces          200;
        startFace       799480;
    }
    up
    {
        type            symmetryPlane;
        inGroups        List<word> 1(symmetryPlane);
        nFaces          400;
        startFace       799680;
    }
    left
    {
        type            patch;
        nFaces          200;
        startFace       800080;
    }
    front
    {
        type            empty;
        inGroups        List<word> 1(empty);
        nFaces          115875;
        startFace       800280;
    }
    back
    {
        type            empty;
        inGroups        List<word> 1(empty);
        nFaces          115884;
        startFace       916155;
    }
    wing
    {
        type            wall;
        inGroups        List<word> 1(wall);
        nFaces          9825;
        startFace       1032039;
    }
)

// ************************************************************************* //
