/*--------------------------------*- C++ -*----------------------------------*\
  =========                 |
  \\      /  F ield         | OpenFOAM: The Open Source CFD Toolbox
   \\    /   O peration     | Website:  https://openfoam.org
    \\  /    A nd           | Version:  10
     \\/     M anipulation  |
\*---------------------------------------------------------------------------*/
FoamFile
{
    format      ascii;
    class       polyBoundaryMesh;
    location    "constant/polyMesh";
    object      boundary;
}
// * * * * * * * * * * * * * * * * * * * * * * * * * * * * * * * * * * * * * //

10
(
    down
    {
        type            patch;
        nFaces          0;
        startFace       17546;
    }
    right
    {
        type            patch;
        nFaces          30;
        startFace       17546;
    }
    up
    {
        type            patch;
        nFaces          25;
        startFace       17576;
    }
    meanFlow
    {
        type            patch;
        nFaces          1;
        startFace       17601;
    }
    coandaUpper
    {
        type            patch;
        nFaces          10;
        startFace       17602;
    }
    coandaLower
    {
        type            patch;
        nFaces          0;
        startFace       17612;
    }
    surface
    {
        type            wall;
        inGroups        List<word> 1(wall);
        nFaces          231;
        startFace       17612;
    }
    defaultFaces
    {
        type            empty;
        inGroups        List<word> 1(empty);
        nFaces          17822;
        startFace       17843;
    }
    procBoundary5to2
    {
        type            processor;
        inGroups        List<word> 1(processor);
        nFaces          120;
        startFace       35665;
        matchTolerance  0.0001;
        myProcNo        5;
        neighbProcNo    2;
    }
    procBoundary5to4
    {
        type            processor;
        inGroups        List<word> 1(processor);
        nFaces          135;
        startFace       35785;
        matchTolerance  0.0001;
        myProcNo        5;
        neighbProcNo    4;
    }
)

// ************************************************************************* //
