/*--------------------------------*- C++ -*----------------------------------*\
  =========                 |
  \\      /  F ield         | OpenFOAM: The Open Source CFD Toolbox
   \\    /   O peration     | Website:  https://openfoam.org
    \\  /    A nd           | Version:  10
     \\/     M anipulation  |
\*---------------------------------------------------------------------------*/
FoamFile
{
    format      ascii;
    class       polyBoundaryMesh;
    location    "constant/polyMesh";
    object      boundary;
}
// * * * * * * * * * * * * * * * * * * * * * * * * * * * * * * * * * * * * * //

5
(
    inOut
    {
        type            patch;
        nFaces          170;
        startFace       14025;
    }
    coandaUpper
    {
        type            patch;
        nFaces          3;
        startFace       14195;
    }
    coandaLower
    {
        type            patch;
        nFaces          3;
        startFace       14198;
    }
    surface
    {
        type            wall;
        inGroups        List<word> 1(wall);
        nFaces          174;
        startFace       14201;
    }
    defaultFaces
    {
        type            empty;
        inGroups        List<word> 1(empty);
        nFaces          14200;
        startFace       14375;
    }
)

// ************************************************************************* //
