/*--------------------------------*- C++ -*----------------------------------*\
  =========                 |
  \\      /  F ield         | OpenFOAM: The Open Source CFD Toolbox
   \\    /   O peration     | Website:  https://openfoam.org
    \\  /    A nd           | Version:  10
     \\/     M anipulation  |
\*---------------------------------------------------------------------------*/
FoamFile
{
    format      ascii;
    class       polyBoundaryMesh;
    location    "constant/polyMesh";
    object      boundary;
}
// * * * * * * * * * * * * * * * * * * * * * * * * * * * * * * * * * * * * * //

5
(
    inOut
    {
        type            patch;
        nFaces          190;
        startFace       19922;
    }
    coandaUpper
    {
        type            patch;
        nFaces          5;
        startFace       20112;
    }
    coandaLower
    {
        type            patch;
        nFaces          5;
        startFace       20117;
    }
    surface
    {
        type            wall;
        inGroups        List<word> 1(wall);
        nFaces          196;
        startFace       20122;
    }
    defaultFaces
    {
        type            empty;
        inGroups        List<word> 1(empty);
        nFaces          20120;
        startFace       20318;
    }
)

// ************************************************************************* //
