/*--------------------------------*- C++ -*----------------------------------*\
  =========                 |
  \\      /  F ield         | OpenFOAM: The Open Source CFD Toolbox
   \\    /   O peration     | Website:  https://openfoam.org
    \\  /    A nd           | Version:  10
     \\/     M anipulation  |
\*---------------------------------------------------------------------------*/
FoamFile
{
    format      ascii;
    class       polyBoundaryMesh;
    location    "constant/polyMesh";
    object      boundary;
}
// * * * * * * * * * * * * * * * * * * * * * * * * * * * * * * * * * * * * * //

5
(
    inOut
    {
        type            patch;
        nFaces          264;
        startFace       42573;
    }
    coandaUpper
    {
        type            patch;
        nFaces          2;
        startFace       42837;
    }
    coandaLower
    {
        type            patch;
        nFaces          2;
        startFace       42839;
    }
    surface
    {
        type            wall;
        inGroups        List<word> 1(wall);
        nFaces          266;
        startFace       42841;
    }
    defaultFaces
    {
        type            empty;
        inGroups        List<word> 1(empty);
        nFaces          42840;
        startFace       43107;
    }
)

// ************************************************************************* //
