/*--------------------------------*- C++ -*----------------------------------*\
  =========                 |
  \\      /  F ield         | OpenFOAM: The Open Source CFD Toolbox
   \\    /   O peration     | Website:  https://openfoam.org
    \\  /    A nd           | Version:  10
     \\/     M anipulation  |
\*---------------------------------------------------------------------------*/
FoamFile
{
    format      ascii;
    class       polyBoundaryMesh;
    location    "constant/polyMesh";
    object      boundary;
}
// * * * * * * * * * * * * * * * * * * * * * * * * * * * * * * * * * * * * * //

5
(
    inOut
    {
        type            patch;
        nFaces          160;
        startFace       13235;
    }
    coandaUpper
    {
        type            patch;
        nFaces          3;
        startFace       13395;
    }
    coandaLower
    {
        type            patch;
        nFaces          3;
        startFace       13398;
    }
    surface
    {
        type            wall;
        inGroups        List<word> 1(wall);
        nFaces          164;
        startFace       13401;
    }
    defaultFaces
    {
        type            empty;
        inGroups        List<word> 1(empty);
        nFaces          13400;
        startFace       13565;
    }
)

// ************************************************************************* //
