/*--------------------------------*- C++ -*----------------------------------*\
  =========                 |
  \\      /  F ield         | OpenFOAM: The Open Source CFD Toolbox
   \\    /   O peration     | Website:  https://openfoam.org
    \\  /    A nd           | Version:  10
     \\/     M anipulation  |
\*---------------------------------------------------------------------------*/
FoamFile
{
    format      ascii;
    class       polyBoundaryMesh;
    location    "constant/polyMesh";
    object      boundary;
}
// * * * * * * * * * * * * * * * * * * * * * * * * * * * * * * * * * * * * * //

8
(
    down
    {
        type            patch;
        nFaces          25;
        startFace       101966;
    }
    right
    {
        type            patch;
        nFaces          60;
        startFace       101991;
    }
    up
    {
        type            patch;
        nFaces          25;
        startFace       102051;
    }
    meanFlow
    {
        type            patch;
        nFaces          400;
        startFace       102076;
    }
    coandaUpper
    {
        type            patch;
        nFaces          2;
        startFace       102476;
    }
    coandaLower
    {
        type            patch;
        nFaces          2;
        startFace       102478;
    }
    surface
    {
        type            wall;
        inGroups        List<word> 1(wall);
        nFaces          514;
        startFace       102480;
    }
    defaultFaces
    {
        type            empty;
        inGroups        List<word> 1(empty);
        nFaces          102480;
        startFace       102994;
    }
)

// ************************************************************************* //
