/*--------------------------------*- C++ -*----------------------------------*\
  =========                 |
  \\      /  F ield         | OpenFOAM: The Open Source CFD Toolbox
   \\    /   O peration     | Website:  https://openfoam.org
    \\  /    A nd           | Version:  10
     \\/     M anipulation  |
\*---------------------------------------------------------------------------*/
FoamFile
{
    format      ascii;
    class       polyBoundaryMesh;
    location    "constant/polyMesh";
    object      boundary;
}
// * * * * * * * * * * * * * * * * * * * * * * * * * * * * * * * * * * * * * //

5
(
    inOut
    {
        type            patch;
        nFaces          190;
        startFace       19227;
    }
    coandaUpper
    {
        type            patch;
        nFaces          2;
        startFace       19417;
    }
    coandaLower
    {
        type            patch;
        nFaces          2;
        startFace       19419;
    }
    surface
    {
        type            wall;
        inGroups        List<word> 1(wall);
        nFaces          192;
        startFace       19421;
    }
    defaultFaces
    {
        type            empty;
        inGroups        List<word> 1(empty);
        nFaces          19420;
        startFace       19613;
    }
)

// ************************************************************************* //
