/*--------------------------------*- C++ -*----------------------------------*\
  =========                 |
  \\      /  F ield         | OpenFOAM: The Open Source CFD Toolbox
   \\    /   O peration     | Website:  https://openfoam.org
    \\  /    A nd           | Version:  9
     \\/     M anipulation  |
\*---------------------------------------------------------------------------*/
FoamFile
{
    format      ascii;
    class       polyBoundaryMesh;
    location    "constant/polyMesh";
    object      boundary;
}
// * * * * * * * * * * * * * * * * * * * * * * * * * * * * * * * * * * * * * //

8
(
    down
    {
        type            patch;
        nFaces          25;
        startFace       74566;
    }
    right
    {
        type            patch;
        nFaces          60;
        startFace       74591;
    }
    up
    {
        type            patch;
        nFaces          25;
        startFace       74651;
    }
    meanFlow
    {
        type            patch;
        nFaces          200;
        startFace       74676;
    }
    coandaUpper
    {
        type            patch;
        nFaces          2;
        startFace       74876;
    }
    coandaLower
    {
        type            patch;
        nFaces          2;
        startFace       74878;
    }
    surface
    {
        type            wall;
        inGroups        List<word> 1(wall);
        nFaces          314;
        startFace       74880;
    }
    defaultFaces
    {
        type            empty;
        inGroups        List<word> 1(empty);
        nFaces          74880;
        startFace       75194;
    }
)

// ************************************************************************* //
