/*--------------------------------*- C++ -*----------------------------------*\
  =========                 |
  \\      /  F ield         | OpenFOAM: The Open Source CFD Toolbox
   \\    /   O peration     | Website:  https://openfoam.org
    \\  /    A nd           | Version:  10
     \\/     M anipulation  |
\*---------------------------------------------------------------------------*/
FoamFile
{
    format      ascii;
    class       polyBoundaryMesh;
    location    "constant/polyMesh";
    object      boundary;
}
// * * * * * * * * * * * * * * * * * * * * * * * * * * * * * * * * * * * * * //

5
(
    inOut
    {
        type            patch;
        nFaces          380;
        startFace       124729;
    }
    coandaUpper
    {
        type            patch;
        nFaces          6;
        startFace       125109;
    }
    coandaLower
    {
        type            patch;
        nFaces          6;
        startFace       125115;
    }
    surface
    {
        type            wall;
        inGroups        List<word> 1(wall);
        nFaces          390;
        startFace       125121;
    }
    defaultFaces
    {
        type            empty;
        inGroups        List<word> 1(empty);
        nFaces          125120;
        startFace       125511;
    }
)

// ************************************************************************* //
