/*--------------------------------*- C++ -*----------------------------------*\
  =========                 |
  \\      /  F ield         | OpenFOAM: The Open Source CFD Toolbox
   \\    /   O peration     | Website:  https://openfoam.org
    \\  /    A nd           | Version:  10
     \\/     M anipulation  |
\*---------------------------------------------------------------------------*/
FoamFile
{
    format      ascii;
    class       polyBoundaryMesh;
    location    "constant/polyMesh";
    object      boundary;
}
// * * * * * * * * * * * * * * * * * * * * * * * * * * * * * * * * * * * * * //

8
(
    down
    {
        type            patch;
        nFaces          25;
        startFace       56840;
    }
    right
    {
        type            patch;
        nFaces          60;
        startFace       56865;
    }
    up
    {
        type            patch;
        nFaces          25;
        startFace       56925;
    }
    meanFlow
    {
        type            patch;
        nFaces          240;
        startFace       56950;
    }
    coandaUpper
    {
        type            patch;
        nFaces          5;
        startFace       57190;
    }
    coandaLower
    {
        type            patch;
        nFaces          5;
        startFace       57195;
    }
    surface
    {
        type            wall;
        inGroups        List<word> 1(wall);
        nFaces          360;
        startFace       57200;
    }
    defaultFaces
    {
        type            empty;
        inGroups        List<word> 1(empty);
        nFaces          57200;
        startFace       57560;
    }
)

// ************************************************************************* //
