/*--------------------------------*- C++ -*----------------------------------*\
  =========                 |
  \\      /  F ield         | OpenFOAM: The Open Source CFD Toolbox
   \\    /   O peration     | Website:  https://openfoam.org
    \\  /    A nd           | Version:  10
     \\/     M anipulation  |
\*---------------------------------------------------------------------------*/
FoamFile
{
    format      ascii;
    class       polyBoundaryMesh;
    location    "constant/polyMesh";
    object      boundary;
}
// * * * * * * * * * * * * * * * * * * * * * * * * * * * * * * * * * * * * * //

5
(
    inOut
    {
        type            patch;
        nFaces          220;
        startFace       44869;
    }
    coandaUpper
    {
        type            patch;
        nFaces          6;
        startFace       45089;
    }
    coandaLower
    {
        type            patch;
        nFaces          6;
        startFace       45095;
    }
    surface
    {
        type            wall;
        inGroups        List<word> 1(wall);
        nFaces          230;
        startFace       45101;
    }
    defaultFaces
    {
        type            empty;
        inGroups        List<word> 1(empty);
        nFaces          45100;
        startFace       45331;
    }
)

// ************************************************************************* //
