/*--------------------------------*- C++ -*----------------------------------*\
  =========                 |
  \\      /  F ield         | OpenFOAM: The Open Source CFD Toolbox
   \\    /   O peration     | Website:  https://openfoam.org
    \\  /    A nd           | Version:  10
     \\/     M anipulation  |
\*---------------------------------------------------------------------------*/
FoamFile
{
    format      ascii;
    class       polyBoundaryMesh;
    location    "constant/polyMesh";
    object      boundary;
}
// * * * * * * * * * * * * * * * * * * * * * * * * * * * * * * * * * * * * * //

5
(
    inOut
    {
        type            patch;
        nFaces          190;
        startFace       23305;
    }
    coandaUpper
    {
        type            patch;
        nFaces          3;
        startFace       23495;
    }
    coandaLower
    {
        type            patch;
        nFaces          3;
        startFace       23498;
    }
    surface
    {
        type            wall;
        inGroups        List<word> 1(wall);
        nFaces          194;
        startFace       23501;
    }
    defaultFaces
    {
        type            empty;
        inGroups        List<word> 1(empty);
        nFaces          23500;
        startFace       23695;
    }
)

// ************************************************************************* //
