/*--------------------------------*- C++ -*----------------------------------*\
  =========                 |
  \\      /  F ield         | OpenFOAM: The Open Source CFD Toolbox
   \\    /   O peration     | Website:  https://openfoam.org
    \\  /    A nd           | Version:  8
     \\/     M anipulation  |
\*---------------------------------------------------------------------------*/
FoamFile
{
    version     2.0;
    format      ascii;
    class       dictionary;
    object      blockMeshDict;
}
// * * * * * * * * * * * * * * * * * * * * * * * * * * * * * * * * * * * * * //

scale           1;

dL          0.465;
dR          0.475;

hU           .025;
hL          -.025;

wT             10;
wB            -10;

pR           .475;
pL          -.475;

bk            -.5;
fr             .5;

cL            -.5;
cR             .5;

aL        -10.475;
aR         10.475;

tE         .49975;

DU             .5;
DL            -.5;

th          11.48;
TH          84.26;

pI           -.02;

vertices
(
    ($pL $wB $bk) // 0
    ($pL $wB $fr) // 1
    ($pL $hL $bk) // 2
    ($pL $hL $fr) // 3
    ($cL   0 $bk) // 4
    ($cL   0 $fr) // 5
    ($aL   0 $bk) // 6
    ($aL   0 $fr) // 7
    ($pL $hU $bk) // 8
    ($pL $hU $fr) // 9
    ($pL $wT $bk) // 10
    ($pL $wT $fr) // 11
    (  0 $hU $bk) // 12
    (  0 $hU $fr) // 13
    (  0 $wT $bk) // 14
    (  0 $wT $fr) // 15
    ($dL $hU $bk) // 16
    ($dL $hU $fr) // 17
    ($dL $pI $bk) // 18
    ($dL $pI $fr) // 19
    ($dR $pI $bk) // 20
    ($dR $pI $fr) // 21
    ($dR $hU $bk) // 22
    ($dR $hU $fr) // 23
    ($dL $wT $bk) // 24
    ($dL $wT $fr) // 25
    ($dR $wT $bk) // 26
    ($dR $wT $fr) // 27
    ($cR   0 $bk) // 28
    ($cR   0 $fr) // 29
    ($aR   0 $bk) // 30
    ($aR   0 $fr) // 31
    ($pR $hL $bk) // 32
    ($pR $hL $fr) // 33
    ($pR $wB $bk) // 34
    ($pR $wB $fr) // 35
    (  0 $hL $bk) // 36
    (  0 $hL $fr) // 37
    (  0 $wB $bk) // 38
    (  0 $wB $fr) // 39
  );

blocks
(
  hex ( 2  4  6  0  3  5  7  1 ) (100 120 1) simpleGrading (  1 600 1) // 0
  hex ( 4  8 10  6  5  9 11  7 ) (100 120 1) simpleGrading (  1 600 1) // 1
  hex ( 8 12 14 10  9 13 15 11 ) (100 120 1) simpleGrading ( 50 600 1) // 2
  hex (12 16 24 14 13 17 25 15 ) (100 120 1) simpleGrading (.02 600 1) // 3
  hex (16 22 26 24 17 23 27 25 ) ( 60 120 1) simpleGrading (  1 600 1) // 4 Slot Exit
  hex (18 20 22 16 19 21 23 17 ) ( 60 200 1) simpleGrading (  1   1 1) // 5 Slot Int
  hex (22 28 30 26 23 29 31 27 ) (100 120 1) simpleGrading (  1 600 1) // 6
  hex (28 32 34 30 29 33 35 31 ) (100 120 1) simpleGrading (  1 600 1) // 7
  hex (32 36 38 34 33 37 39 35 ) (100 120 1) simpleGrading ( 50 600 1) // 8
  hex (36  2  0 38 37  3  1 39 ) (100 120 1) simpleGrading (.02 600 1) // 9
);

edges
(
    arc  0  6  90.0 (0 0 -1)
    arc  1  7  90.0 (0 0 -1)
    arc  2  4  90.0 (0 0 -1)
    arc  3  5  90.0 (0 0 -1)
    arc  4  8  90.0 (0 0 -1)
    arc  5  9  90.0 (0 0 -1)
    arc  6 10  90.0 (0 0 -1)
    arc  7 11  90.0 (0 0 -1)
    arc 26 30  90.0 (0 0 -1)
    arc 27 31  90.0 (0 0 -1)
    arc 22 28  90.0 (0 0 -1)
    arc 23 29  90.0 (0 0 -1)
    arc 28 32  90.0 (0 0 -1)
    arc 29 33  90.0 (0 0 -1)
    arc 30 34  90.0 (0 0 -1)
    arc 31 35  90.0 (0 0 -1)
);

boundary
(
    down
    {
        type symmetryPlane;
        faces
        (
            ( 0 38 39  1)
            (38 34 35 39)
        );
    }
    right
    {
        type patch;
        faces
        (
            (26 30 31 27)
            (30 34 35 31)
        );
    }
    up
    {
        type symmetryPlane;
        faces
        (
            (10 14 15 11)
            (14 15 25 24)
            (24 25 27 26)

        );
    }
    left
    {
        type patch;
        faces
        (
            (0  6  7 1)
            (6 10 11 7)
        );
    }
    cylinder
    {
        type wall;
        faces
        (
            ( 2  4  5  3)
            ( 4  8  9  5)
            ( 8 12 13  9)
            (12 16 17 13)
            (22 28 29 23)
            (28 32 33 29)
            (32 36 37 33)
            (36  2  3 37)
        );
    }
    cylinderInner
    {
        type wall;
        faces
        (
            (16 18 19 17)
            (20 22 23 21)
        );
    }
    slot
    {
        type patch;
        faces
        (
            (18 20 21 19)
        );
    }
);

mergePatchPairs
(
);

// ************************************************************************* //
