/*--------------------------------*- C++ -*----------------------------------*\
  =========                 |
  \\      /  F ield         | OpenFOAM: The Open Source CFD Toolbox
   \\    /   O peration     | Website:  https://openfoam.org
    \\  /    A nd           | Version:  8
     \\/     M anipulation  |
\*---------------------------------------------------------------------------*/
FoamFile
{
    version     2.0;
    format      ascii;
    class       polyBoundaryMesh;
    location    "3e-05/polyMesh";
    object      boundary;
}
// * * * * * * * * * * * * * * * * * * * * * * * * * * * * * * * * * * * * * //

7
(
    down
    {
        type            symmetryPlane;
        inGroups        List<word> 1(symmetryPlane);
        nFaces          400;
        startFace       1806793;
    }
    right
    {
        type            patch;
        nFaces          200;
        startFace       1807193;
    }
    up
    {
        type            symmetryPlane;
        inGroups        List<word> 1(symmetryPlane);
        nFaces          400;
        startFace       1807393;
    }
    left
    {
        type            patch;
        nFaces          200;
        startFace       1807793;
    }
    front
    {
        type            empty;
        inGroups        List<word> 1(empty);
        nFaces          106911;
        startFace       1807993;
    }
    back
    {
        type            empty;
        inGroups        List<word> 1(empty);
        nFaces          106914;
        startFace       1914904;
    }
    wing
    {
        type            wall;
        inGroups        List<word> 1(wall);
        nFaces          24096;
        startFace       2021818;
    }
)

// ************************************************************************* //
