/*--------------------------------*- C++ -*----------------------------------*\
  =========                 |
  \\      /  F ield         | OpenFOAM: The Open Source CFD Toolbox
   \\    /   O peration     | Website:  https://openfoam.org
    \\  /    A nd           | Version:  8
     \\/     M anipulation  |
\*---------------------------------------------------------------------------*/
FoamFile
{
    version     2.0;
    format      ascii;
    class       polyBoundaryMesh;
    location    "0.5/polyMesh";
    object      boundary;
}
// * * * * * * * * * * * * * * * * * * * * * * * * * * * * * * * * * * * * * //

6
(
    topAndBottom
    {
        type            patch;
        nFaces          554;
        startFace       877363;
    }
    inlet
    {
        type            patch;
        nFaces          148;
        startFace       877917;
    }
    outlet
    {
        type            patch;
        nFaces          1408;
        startFace       878065;
    }
    symFront
    {
        type            patch;
        nFaces          256;
        startFace       879473;
    }
    symBack
    {
        type            symmetryPlane;
        inGroups        List<word> 1(symmetryPlane);
        nFaces          3009;
        startFace       879729;
    }
    wing
    {
        type            wall;
        inGroups        List<word> 1(wall);
        nFaces          27008;
        startFace       882738;
    }
)

// ************************************************************************* //
