/*--------------------------------*- C++ -*----------------------------------*\
  =========                 |
  \\      /  F ield         | OpenFOAM: The Open Source CFD Toolbox
   \\    /   O peration     | Website:  https://openfoam.org
    \\  /    A nd           | Version:  8
     \\/     M anipulation  |
\*---------------------------------------------------------------------------*/
FoamFile
{
    version     2.0;
    format      ascii;
    class       polyBoundaryMesh;
    location    "2e-05/polyMesh";
    object      boundary;
}
// * * * * * * * * * * * * * * * * * * * * * * * * * * * * * * * * * * * * * //

7
(
    down
    {
        type            symmetryPlane;
        inGroups        List<word> 1(symmetryPlane);
        nFaces          400;
        startFace       710901;
    }
    right
    {
        type            patch;
        nFaces          200;
        startFace       711301;
    }
    up
    {
        type            symmetryPlane;
        inGroups        List<word> 1(symmetryPlane);
        nFaces          400;
        startFace       711501;
    }
    left
    {
        type            patch;
        nFaces          200;
        startFace       711901;
    }
    front
    {
        type            empty;
        inGroups        List<word> 1(empty);
        nFaces          115140;
        startFace       712101;
    }
    back
    {
        type            empty;
        inGroups        List<word> 1(empty);
        nFaces          115146;
        startFace       827241;
    }
    wing
    {
        type            wall;
        inGroups        List<word> 1(wall);
        nFaces          9825;
        startFace       942387;
    }
)

// ************************************************************************* //
