/*--------------------------------*- C++ -*----------------------------------*\
  =========                 |
  \\      /  F ield         | OpenFOAM: The Open Source CFD Toolbox
   \\    /   O peration     | Website:  https://openfoam.org
    \\  /    A nd           | Version:  8
     \\/     M anipulation  |
\*---------------------------------------------------------------------------*/
FoamFile
{
    version     2.0;
    format      ascii;
    class       volScalarField;
    object      nut;
}
// * * * * * * * * * * * * * * * * * * * * * * * * * * * * * * * * * * * * * //

dimensions      [0 2 -1 0 0 0 0];

def_pl          uniform 4.5e-5;

internalField   $def_pl;

boundaryField
{
    meanFlow
    {
        type            calculated;
        value           $def_pl;
    }

    right
    {
        type            calculated;
        value           $def_pl;
    }

    down
    {
        type            calculated;
        value           $def_pl;
    }

    up
    {
        type            calculated;
        value           $def_pl;
    }

    surface
    {
        type            nutUSpaldingWallFunction;
        value           $def_pl;
    }
}

// ************************************************************************* //
