/*--------------------------------*- C++ -*----------------------------------*\
  =========                 |
  \\      /  F ield         | OpenFOAM: The Open Source CFD Toolbox
   \\    /   O peration     | Website:  https://openfoam.org
    \\  /    A nd           | Version:  10
     \\/     M anipulation  |
\*---------------------------------------------------------------------------*/
FoamFile
{
    format      ascii;
    class       polyBoundaryMesh;
    location    "constant/polyMesh";
    object      boundary;
}
// * * * * * * * * * * * * * * * * * * * * * * * * * * * * * * * * * * * * * //

10
(
    down
    {
        type            patch;
        nFaces          0;
        startFace       17559;
    }
    right
    {
        type            patch;
        nFaces          0;
        startFace       17559;
    }
    up
    {
        type            patch;
        nFaces          0;
        startFace       17559;
    }
    meanFlow
    {
        type            patch;
        nFaces          189;
        startFace       17559;
    }
    coandaUpper
    {
        type            patch;
        nFaces          0;
        startFace       17748;
    }
    coandaLower
    {
        type            patch;
        nFaces          0;
        startFace       17748;
    }
    surface
    {
        type            wall;
        inGroups        List<word> 1(wall);
        nFaces          36;
        startFace       17748;
    }
    defaultFaces
    {
        type            empty;
        inGroups        List<word> 1(empty);
        nFaces          17848;
        startFace       17784;
    }
    procBoundary3to0
    {
        type            processor;
        inGroups        List<word> 1(processor);
        nFaces          100;
        startFace       35632;
        matchTolerance  0.0001;
        myProcNo        3;
        neighbProcNo    0;
    }
    procBoundary3to4
    {
        type            processor;
        inGroups        List<word> 1(processor);
        nFaces          253;
        startFace       35732;
        matchTolerance  0.0001;
        myProcNo        3;
        neighbProcNo    4;
    }
)

// ************************************************************************* //
