/*--------------------------------*- C++ -*----------------------------------*\
  =========                 |
  \\      /  F ield         | OpenFOAM: The Open Source CFD Toolbox
   \\    /   O peration     | Website:  https://openfoam.org
    \\  /    A nd           | Version:  10
     \\/     M anipulation  |
\*---------------------------------------------------------------------------*/
FoamFile
{
    format      ascii;
    class       polyBoundaryMesh;
    location    "constant/polyMesh";
    object      boundary;
}
// * * * * * * * * * * * * * * * * * * * * * * * * * * * * * * * * * * * * * //

5
(
    inOut
    {
        type            patch;
        nFaces          160;
        startFace       12997;
    }
    coandaUpper
    {
        type            patch;
        nFaces          2;
        startFace       13157;
    }
    coandaLower
    {
        type            patch;
        nFaces          2;
        startFace       13159;
    }
    surface
    {
        type            wall;
        inGroups        List<word> 1(wall);
        nFaces          162;
        startFace       13161;
    }
    defaultFaces
    {
        type            empty;
        inGroups        List<word> 1(empty);
        nFaces          13160;
        startFace       13323;
    }
)

// ************************************************************************* //
