/*--------------------------------*- C++ -*----------------------------------*\
  =========                 |
  \\      /  F ield         | OpenFOAM: The Open Source CFD Toolbox
   \\    /   O peration     | Website:  https://openfoam.org
    \\  /    A nd           | Version:  8
     \\/     M anipulation  |
\*---------------------------------------------------------------------------*/
FoamFile
{
    version     2.0;
    format      ascii;
    class       polyBoundaryMesh;
    location    "constant/polyMesh";
    object      boundary;
}
// * * * * * * * * * * * * * * * * * * * * * * * * * * * * * * * * * * * * * //

7
(
    down
    {
        type            symmetryPlane;
        inGroups        List<word> 1(symmetryPlane);
        nFaces          400;
        startFace       224778;
    }
    right
    {
        type            patch;
        nFaces          200;
        startFace       225178;
    }
    up
    {
        type            symmetryPlane;
        inGroups        List<word> 1(symmetryPlane);
        nFaces          400;
        startFace       225378;
    }
    left
    {
        type            patch;
        nFaces          200;
        startFace       225778;
    }
    front
    {
        type            empty;
        inGroups        List<word> 1(empty);
        nFaces          112487;
        startFace       225978;
    }
    back
    {
        type            empty;
        inGroups        List<word> 1(empty);
        nFaces          112487;
        startFace       338465;
    }
    wing
    {
        type            wall;
        inGroups        List<word> 1(wall);
        nFaces          328;
        startFace       450952;
    }
)

// ************************************************************************* //
