/*--------------------------------*- C++ -*----------------------------------*\
  =========                 |
  \\      /  F ield         | OpenFOAM: The Open Source CFD Toolbox
   \\    /   O peration     | Website:  https://openfoam.org
    \\  /    A nd           | Version:  8
     \\/     M anipulation  |
\*---------------------------------------------------------------------------*/
FoamFile
{
    version     2.0;
    format      ascii;
    class       dictionary;
    object      blockMeshDict;
}
// * * * * * * * * * * * * * * * * * * * * * * * * * * * * * * * * * * * * * //

scale           1;
hu           0.05;
hl          -0.05;
wU              1;
wL             -1;
dU          0.005;
dL         -0.005;
DU            .25;
DL           -.25;
tx           .545;

bL            -.5;
bR             .5;

L              -5;
R              10;
T               5;
B              -5;


vertices
(
    ( $L  $B  .1)  // 0
    ( $L  $B -.1)  // 1
    ( $L $wL  .1)  // 2
    ( $L $wL -.1)  // 3
    ( $L $wU  .1)  // 4
    ( $L $wU -.1)  // 5
    ( $L  $T  .1)  // 6
    ( $L  $T -.1)  // 7
    ($bL  $B  .1)  // 8
    ($bL  $B -.1)  // 9
    ($bL $hl  .1)  // 10
    ($bL $hl -.1)  // 11
    ($bL $hu  .1)  // 12
    ($bL $hu -.1)  // 13
    ($bL  $T  .1)  // 14
    ($bL  $T -.1)  // 15
    ($bR  $B  .1)  // 16
    ($bR  $B -.1)  // 17
    ($bR $hl  .1)  // 18
    ($bR $hl -.1)  // 19
    ($bR $hu  .1)  // 20
    ($bR $hu -.1)  // 21
    ($bR  $T  .1)  // 22
    ($bR  $T -.1)  // 23
    ( $R  $B  .1)  // 24
    ( $R  $B -.1)  // 25
    ( $R $wL  .1)  // 26
    ( $R $wL -.1)  // 27
    ( $R $wU  .1)  // 28
    ( $R $wU -.1)  // 29
    ( $R  $T  .1)  // 30
    ( $R  $T -.1)  // 31
    ($tx $dU  .1)  // 32
    ($tx $dL  .1)  // 33
    ($tx $dU -.1)  // 34
    ($tx $dL -.1)  // 35
    ( $R $DU  .1)  // 36
    ( $R $DL  .1)  // 37
    ( $R $DU -.1)  // 38
    ( $R $DL -.1)  // 39

);

blocks
(
    hex ( 1  9 11  3  0  8 10  2) (120 198 1) simpleGrading (.125 .125  1 )
    hex ( 3 11 13  5  2 10 12  4) (120 100 1) simpleGrading (.125    1  1 )
    hex ( 5 13 15  7  4 12 14  6) (120 198 1) simpleGrading (.125    8  1 )
    hex (13 21 23 15 12 20 22 14) (250 198 1) simpleGrading (   1    8  1 )
    hex (21 29 31 23 20 28 30 22) (240 198 1) simpleGrading (  16    8  1 )
    hex (34 38 29 21 32 36 28 20) (240  40 1) simpleGrading (  16    4  1 )
    hex (35 39 38 34 33 37 36 32) (240  20 1) simpleGrading (  16    1  1 )
    hex (19 27 39 35 18 26 37 33) (240  40 1) simpleGrading (  16  .25  1 )
    hex (17 25 27 19 16 24 26 18) (240 198 1) simpleGrading (  16 .125  1 )
    hex ( 9 17 19 11  8 16 18 10) (250 198 1) simpleGrading (   1 .125  1 )
);

edges
(
    arc  12 10 180.0 ( 0  0  1 )
    arc  13 11 180.0 ( 0  0  1 )
    arc  18 33  90.0 ( 0  0  1 )
    arc  32 20  90.0 ( 0  0  1 )
    arc  34 21  90.0 ( 0  0  1 )
    arc  19 35  90.0 ( 0  0  1 )
);

boundary
(
    down
    {
        type symmetryPlane;
        faces
        (
            ( 0  8  9  1)
            ( 8 16 17  9)
            (16 24 25 17)
        );
    }
    right
    {
        type patch;
        faces
        (
            (24 25 27 26)
            (26 27 39 37)
            (37 39 38 36)
            (36 38 28 29)
            (28 29 31 30)
        );
    }
    up
    {
        type symmetryPlane;
        faces
        (
            (6  14 15  7)
            (14 22 23 15)
            (22 30 31 23)
        );
    }
    left
    {
        type patch;
        faces
        (
            (0 1 3 2)
            (2 3 5 4)
            (4 5 7 6)
        );
    }
    cylinder
    {
        type wall;
        faces
        (
            (20 32 34 21)
            (20 21 13 12)
            (10 11 13 12)
            (11 19 18 10)
            (18 19 35 33)
        );
    }
    slot
    {
        type patch;
        faces
        (
            (33 32 34 35)
        );
    }
);

mergePatchPairs
(
);

// ************************************************************************* //
