/*--------------------------------*- C++ -*----------------------------------*\
  =========                 |
  \\      /  F ield         | OpenFOAM: The Open Source CFD Toolbox
   \\    /   O peration     | Website:  https://openfoam.org
    \\  /    A nd           | Version:  10
     \\/     M anipulation  |
\*---------------------------------------------------------------------------*/
FoamFile
{
    format      ascii;
    class       polyBoundaryMesh;
    location    "constant/polyMesh";
    object      boundary;
}
// * * * * * * * * * * * * * * * * * * * * * * * * * * * * * * * * * * * * * //

8
(
    down
    {
        type            patch;
        nFaces          25;
        startFace       66780;
    }
    right
    {
        type            patch;
        nFaces          80;
        startFace       66805;
    }
    up
    {
        type            patch;
        nFaces          25;
        startFace       66885;
    }
    meanFlow
    {
        type            patch;
        nFaces          280;
        startFace       66910;
    }
    coandaUpper
    {
        type            patch;
        nFaces          5;
        startFace       67190;
    }
    coandaLower
    {
        type            patch;
        nFaces          5;
        startFace       67195;
    }
    surface
    {
        type            wall;
        inGroups        List<word> 1(wall);
        nFaces          420;
        startFace       67200;
    }
    defaultFaces
    {
        type            empty;
        inGroups        List<word> 1(empty);
        nFaces          67200;
        startFace       67620;
    }
)

// ************************************************************************* //
