/*--------------------------------*- C++ -*----------------------------------*\
  =========                 |
  \\      /  F ield         | OpenFOAM: The Open Source CFD Toolbox
   \\    /   O peration     | Website:  https://openfoam.org
    \\  /    A nd           | Version:  9
     \\/     M anipulation  |
\*---------------------------------------------------------------------------*/
FoamFile
{
    format      ascii;
    class       polyBoundaryMesh;
    location    "constant/polyMesh";
    object      boundary;
}
// * * * * * * * * * * * * * * * * * * * * * * * * * * * * * * * * * * * * * //

10
(
    down
    {
        type            patch;
        nFaces          59;
        startFace       10523;
    }
    right
    {
        type            patch;
        nFaces          75;
        startFace       10582;
    }
    up
    {
        type            patch;
        nFaces          0;
        startFace       10657;
    }
    meanFlow
    {
        type            patch;
        nFaces          0;
        startFace       10657;
    }
    surface
    {
        type            wall;
        inGroups        List<word> 1(wall);
        nFaces          60;
        startFace       10657;
    }
    surfaceInner
    {
        type            wall;
        inGroups        List<word> 1(wall);
        nFaces          74;
        startFace       10717;
    }
    coandaInlet
    {
        type            patch;
        nFaces          0;
        startFace       10791;
    }
    defaultFaces
    {
        type            empty;
        inGroups        List<word> 1(empty);
        nFaces          10746;
        startFace       10791;
    }
    procBoundary1to0
    {
        type            processor;
        inGroups        List<word> 1(processor);
        nFaces          81;
        startFace       21537;
        matchTolerance  0.0001;
        myProcNo        1;
        neighbProcNo    0;
    }
    procBoundary1to3
    {
        type            processor;
        inGroups        List<word> 1(processor);
        nFaces          97;
        startFace       21618;
        matchTolerance  0.0001;
        myProcNo        1;
        neighbProcNo    3;
    }
)

// ************************************************************************* //
