/*--------------------------------*- C++ -*----------------------------------*\
  =========                 |
  \\      /  F ield         | OpenFOAM: The Open Source CFD Toolbox
   \\    /   O peration     | Website:  https://openfoam.org
    \\  /    A nd           | Version:  9
     \\/     M anipulation  |
\*---------------------------------------------------------------------------*/
FoamFile
{
    format      ascii;
    class       polyBoundaryMesh;
    location    "constant/polyMesh";
    object      boundary;
}
// * * * * * * * * * * * * * * * * * * * * * * * * * * * * * * * * * * * * * //

11
(
    down
    {
        type            patch;
        nFaces          89;
        startFace       15489;
    }
    right
    {
        type            patch;
        nFaces          0;
        startFace       15578;
    }
    up
    {
        type            patch;
        nFaces          0;
        startFace       15578;
    }
    meanFlow
    {
        type            patch;
        nFaces          0;
        startFace       15578;
    }
    surface
    {
        type            wall;
        inGroups        List<word> 1(wall);
        nFaces          95;
        startFace       15578;
    }
    surfaceInner
    {
        type            wall;
        inGroups        List<word> 1(wall);
        nFaces          90;
        startFace       15673;
    }
    coandaInlet
    {
        type            patch;
        nFaces          15;
        startFace       15763;
    }
    defaultFaces
    {
        type            empty;
        inGroups        List<word> 1(empty);
        nFaces          15728;
        startFace       15778;
    }
    procBoundary1to0
    {
        type            processor;
        inGroups        List<word> 1(processor);
        nFaces          81;
        startFace       31506;
        matchTolerance  0.0001;
        myProcNo        1;
        neighbProcNo    0;
    }
    procBoundary1to2
    {
        type            processor;
        inGroups        List<word> 1(processor);
        nFaces          106;
        startFace       31587;
        matchTolerance  0.0001;
        myProcNo        1;
        neighbProcNo    2;
    }
    procBoundary1to4
    {
        type            processor;
        inGroups        List<word> 1(processor);
        nFaces          2;
        startFace       31693;
        matchTolerance  0.0001;
        myProcNo        1;
        neighbProcNo    4;
    }
)

// ************************************************************************* //
