/*--------------------------------*- C++ -*----------------------------------*\
  =========                 |
  \\      /  F ield         | OpenFOAM: The Open Source CFD Toolbox
   \\    /   O peration     | Website:  https://openfoam.org
    \\  /    A nd           | Version:  9
     \\/     M anipulation  |
\*---------------------------------------------------------------------------*/
FoamFile
{
    format      ascii;
    class       polyBoundaryMesh;
    location    "constant/polyMesh";
    object      boundary;
}
// * * * * * * * * * * * * * * * * * * * * * * * * * * * * * * * * * * * * * //

10
(
    down
    {
        type            patch;
        nFaces          73;
        startFace       9923;
    }
    right
    {
        type            patch;
        nFaces          0;
        startFace       9996;
    }
    up
    {
        type            patch;
        nFaces          0;
        startFace       9996;
    }
    meanFlow
    {
        type            patch;
        nFaces          0;
        startFace       9996;
    }
    surface
    {
        type            wall;
        inGroups        List<word> 1(wall);
        nFaces          74;
        startFace       9996;
    }
    surfaceInner
    {
        type            wall;
        inGroups        List<word> 1(wall);
        nFaces          84;
        startFace       10070;
    }
    coandaInlet
    {
        type            patch;
        nFaces          15;
        startFace       10154;
    }
    defaultFaces
    {
        type            empty;
        inGroups        List<word> 1(empty);
        nFaces          10114;
        startFace       10169;
    }
    procBoundary1to0
    {
        type            processor;
        inGroups        List<word> 1(processor);
        nFaces          60;
        startFace       20283;
        matchTolerance  0.0001;
        myProcNo        1;
        neighbProcNo    0;
    }
    procBoundary1to2
    {
        type            processor;
        inGroups        List<word> 1(processor);
        nFaces          76;
        startFace       20343;
        matchTolerance  0.0001;
        myProcNo        1;
        neighbProcNo    2;
    }
)

// ************************************************************************* //
