/*--------------------------------*- C++ -*----------------------------------*\
  =========                 |
  \\      /  F ield         | OpenFOAM: The Open Source CFD Toolbox
   \\    /   O peration     | Website:  https://openfoam.org
    \\  /    A nd           | Version:  10
     \\/     M anipulation  |
\*---------------------------------------------------------------------------*/
FoamFile
{
    format      ascii;
    class       polyBoundaryMesh;
    location    "constant/polyMesh";
    object      boundary;
}
// * * * * * * * * * * * * * * * * * * * * * * * * * * * * * * * * * * * * * //

8
(
    down
    {
        type            patch;
        nFaces          25;
        startFace       106340;
    }
    right
    {
        type            patch;
        nFaces          60;
        startFace       106365;
    }
    up
    {
        type            patch;
        nFaces          25;
        startFace       106425;
    }
    meanFlow
    {
        type            patch;
        nFaces          400;
        startFace       106450;
    }
    coandaUpper
    {
        type            patch;
        nFaces          10;
        startFace       106850;
    }
    coandaLower
    {
        type            patch;
        nFaces          10;
        startFace       106860;
    }
    surface
    {
        type            wall;
        inGroups        List<word> 1(wall);
        nFaces          790;
        startFace       106870;
    }
    defaultFaces
    {
        type            empty;
        inGroups        List<word> 1(empty);
        nFaces          107000;
        startFace       107660;
    }
)

// ************************************************************************* //
