/*--------------------------------*- C++ -*----------------------------------*\
  =========                 |
  \\      /  F ield         | OpenFOAM: The Open Source CFD Toolbox
   \\    /   O peration     | Website:  https://openfoam.org
    \\  /    A nd           | Version:  8
     \\/     M anipulation  |
\*---------------------------------------------------------------------------*/
FoamFile
{
    version     2.0;
    format      ascii;
    class       dictionary;
    object      blockMeshDict;
}
// * * * * * * * * * * * * * * * * * * * * * * * * * * * * * * * * * * * * * //

scale           1;

hU            .05;
hL           -.05;

wT              5;
wB             -5;

pR            .45;
pL           -.45;

bk            -.1;
fr             .1;

cL            -.5;
cR             .5;

aL          -5.45;
aR           5.45;


vertices
(
    ($pL $wB $bk)   //  0
    ($pL $wB $fr)   //  1
    ($pL $hL $bk)   //  2
    ($pL $hL $fr)   //  3
    ($pL $hU $bk)   //  4
    ($pL $hU $fr)   //  5
    ($pL $wT $bk)   //  6
    ($pL $wT $fr)   //  7
    ($pR $wB $bk)   //  8
    ($pR $wB $fr)   //  9
    ($pR $hL $bk)   //  10
    ($pR $hL $fr)   //  11
    ($pR $hU $bk)   //  12
    ($pR $hU $fr)   //  13
    ($pR $wT $bk)   //  14
    ($pR $wT $fr)   //  15
    ($cL   0 $bk)   //  16
    ($cL   0 $fr)   //  17
    ($aL   0 $bk)   //  18
    ($aL   0 $fr)   //  19
    ($cR   0 $bk)   //  20
    ($cR   0 $fr)   //  21
    ($aR   0 $bk)   //  22
    ($aR   0 $fr)   //  23
    (  0 $hU $bk)   //  24
    (  0 $hU $fr)   //  25
    (  0 $wT $bk)   //  26
    (  0 $wT $fr)   //  27
    (  0 $hL $bk)   //  28
    (  0 $hL $fr)   //  29
    (  0 $wB $bk)   //  30
    (  0 $wB $fr)   //  31
);

blocks
(
    hex ( 2 16 18  0  3 17 19  1) (100 100 1) simpleGrading (1  80  1) // 0
    hex (16  4  6 18 17  5  7 19) (100 100 1) simpleGrading (1  80  1) // 1
    hex ( 4 24 26  6  5 25 27  7) (100 100 1) simpleGrading (32 80  1) // 2
    hex (24 12 14 26 25 13 15 27) (100 100 1) simpleGrading (.03125 80  1) // 3
    hex (12 20 22 14 13 21 23 15) (100 100 1) simpleGrading (1  80  1) // 4
    hex (20 10  8 22 21 11  9 23) (100 100 1) simpleGrading (1  80  1) // 5
    hex (10 28 30  8 11 29 31  9) (100 100 1) simpleGrading (32 80  1) // 6
    hex (28  2  0 30 29  3  1 31) (100 100 1) simpleGrading (.03125 80  1) // 7
);

edges
(
    arc   0 18   90.0 (0  0 -1)
    arc  18  6   90.0 (0  0 -1)
    arc   1 19   90.0 (0  0 -1)
    arc  19  7   90.0 (0  0 -1)
    arc   2 16   90.0 (0  0 -1)
    arc  16  4   90.0 (0  0 -1)
    arc   3 17   90.0 (0  0 -1)
    arc  17  5   90.0 (0  0 -1)
    arc  14 22   90.0 (0  0 -1)
    arc  15 23   90.0 (0  0 -1)
    arc  22  8   90.0 (0  0 -1)
    arc  23  9   90.0 (0  0 -1)
    arc  12 20   90.0 (0  0 -1)
    arc  20 10   90.0 (0  0 -1)
    arc  13 21   90.0 (0  0 -1)
    arc  21 11   90.0 (0  0 -1)
);

boundary
(
    down
    {
        type symmetryPlane;
        faces
        (
            (0 30 31 1)
            (30 8 9 31)
        );
    }
    right
    {
        type patch;
        faces
        (
            (8 9 23 22)
            (22 23 15 14)
        );
    }
    up
    {
        type symmetryPlane;
        faces
        (
            (6 26 27 7)
            (26 14 15 27)
        );
    }
    left
    {
        type patch;
        faces
        (
            (0 1 19 18)
            (18 19 7 6)
        );
    }
    cylinder
    {
        type wall;
        faces
        (
            (2 16 17 3)
            (16 17 5 4)
            (4 5 25 24)
            (24 25 13 12)
            (12 13 21 20)
            (20 21 11 10)
            (10 11 28 29)
            (28 29 3 2)
        );
    }
);

mergePatchPairs
(
);

// ************************************************************************* //
