/*--------------------------------*- C++ -*----------------------------------*\
  =========                 |
  \\      /  F ield         | OpenFOAM: The Open Source CFD Toolbox
   \\    /   O peration     | Website:  https://openfoam.org
    \\  /    A nd           | Version:  10
     \\/     M anipulation  |
\*---------------------------------------------------------------------------*/
FoamFile
{
    format      ascii;
    class       polyBoundaryMesh;
    location    "constant/polyMesh";
    object      boundary;
}
// * * * * * * * * * * * * * * * * * * * * * * * * * * * * * * * * * * * * * //

10
(
    down
    {
        type            patch;
        nFaces          25;
        startFace       17568;
    }
    right
    {
        type            patch;
        nFaces          30;
        startFace       17593;
    }
    up
    {
        type            patch;
        nFaces          0;
        startFace       17623;
    }
    meanFlow
    {
        type            patch;
        nFaces          1;
        startFace       17623;
    }
    coandaUpper
    {
        type            patch;
        nFaces          0;
        startFace       17624;
    }
    coandaLower
    {
        type            patch;
        nFaces          10;
        startFace       17624;
    }
    surface
    {
        type            wall;
        inGroups        List<word> 1(wall);
        nFaces          231;
        startFace       17634;
    }
    defaultFaces
    {
        type            empty;
        inGroups        List<word> 1(empty);
        nFaces          17844;
        startFace       17865;
    }
    procBoundary2to1
    {
        type            processor;
        inGroups        List<word> 1(processor);
        nFaces          135;
        startFace       35709;
        matchTolerance  0.0001;
        myProcNo        2;
        neighbProcNo    1;
    }
    procBoundary2to5
    {
        type            processor;
        inGroups        List<word> 1(processor);
        nFaces          120;
        startFace       35844;
        matchTolerance  0.0001;
        myProcNo        2;
        neighbProcNo    5;
    }
)

// ************************************************************************* //
