/*--------------------------------*- C++ -*----------------------------------*\
  =========                 |
  \\      /  F ield         | OpenFOAM: The Open Source CFD Toolbox
   \\    /   O peration     | Website:  https://openfoam.org
    \\  /    A nd           | Version:  10
     \\/     M anipulation  |
\*---------------------------------------------------------------------------*/
FoamFile
{
    format      ascii;
    class       polyBoundaryMesh;
    location    "constant/polyMesh";
    object      boundary;
}
// * * * * * * * * * * * * * * * * * * * * * * * * * * * * * * * * * * * * * //

10
(
    down
    {
        type            patch;
        nFaces          0;
        startFace       17531;
    }
    right
    {
        type            patch;
        nFaces          0;
        startFace       17531;
    }
    up
    {
        type            patch;
        nFaces          0;
        startFace       17531;
    }
    meanFlow
    {
        type            patch;
        nFaces          189;
        startFace       17531;
    }
    coandaUpper
    {
        type            patch;
        nFaces          0;
        startFace       17720;
    }
    coandaLower
    {
        type            patch;
        nFaces          0;
        startFace       17720;
    }
    surface
    {
        type            wall;
        inGroups        List<word> 1(wall);
        nFaces          36;
        startFace       17720;
    }
    defaultFaces
    {
        type            empty;
        inGroups        List<word> 1(empty);
        nFaces          17820;
        startFace       17756;
    }
    procBoundary0to1
    {
        type            processor;
        inGroups        List<word> 1(processor);
        nFaces          253;
        startFace       35576;
        matchTolerance  0.0001;
        myProcNo        0;
        neighbProcNo    1;
    }
    procBoundary0to3
    {
        type            processor;
        inGroups        List<word> 1(processor);
        nFaces          100;
        startFace       35829;
        matchTolerance  0.0001;
        myProcNo        0;
        neighbProcNo    3;
    }
)

// ************************************************************************* //
