/*--------------------------------*- C++ -*----------------------------------*\
  =========                 |
  \\      /  F ield         | OpenFOAM: The Open Source CFD Toolbox
   \\    /   O peration     | Website:  https://openfoam.org
    \\  /    A nd           | Version:  8
     \\/     M anipulation  |
\*---------------------------------------------------------------------------*/
FoamFile
{
    version     2.0;
    format      ascii;
    class       volScalarField;
    object      nuTilda;
}
// * * * * * * * * * * * * * * * * * * * * * * * * * * * * * * * * * * * * * //

dimensions      [0 2 -1 0 0 0 0];

constNut        0.14;

internalField   uniform $constNut;

boundaryField
{
    left
    {
        type            freestream;
        freestreamValue uniform $constNut;
    }

    right
    {
        type            freestream;
        freestreamValue uniform $constNut;
    }

    wing
    {
        type            fixedValue;
        value           uniform 0;
    }

    down
    {
        type            symmetryPlane;
    }

    up
    {
        type            symmetryPlane;
    }


    front
    {
        type            empty;
    }

    back
    {
        type            empty;
    }

}

// ************************************************************************* //
