/*--------------------------------*- C++ -*----------------------------------*\
  =========                 |
  \\      /  F ield         | OpenFOAM: The Open Source CFD Toolbox
   \\    /   O peration     | Website:  https://openfoam.org
    \\  /    A nd           | Version:  8
     \\/     M anipulation  |
\*---------------------------------------------------------------------------*/
FoamFile
{
    version     2.0;
    format      ascii;
    class       polyBoundaryMesh;
    location    "3e-05/polyMesh";
    object      boundary;
}
// * * * * * * * * * * * * * * * * * * * * * * * * * * * * * * * * * * * * * //

7
(
    down
    {
        type            symmetryPlane;
        inGroups        List<word> 1(symmetryPlane);
        nFaces          300;
        startFace       1332274;
    }
    right
    {
        type            patch;
        nFaces          150;
        startFace       1332574;
    }
    up
    {
        type            symmetryPlane;
        inGroups        List<word> 1(symmetryPlane);
        nFaces          300;
        startFace       1332724;
    }
    left
    {
        type            patch;
        nFaces          150;
        startFace       1333024;
    }
    front
    {
        type            empty;
        inGroups        List<word> 1(empty);
        nFaces          61495;
        startFace       1333174;
    }
    back
    {
        type            empty;
        inGroups        List<word> 1(empty);
        nFaces          61498;
        startFace       1394669;
    }
    wing
    {
        type            wall;
        inGroups        List<word> 1(wall);
        nFaces          25536;
        startFace       1456167;
    }
)

// ************************************************************************* //
