/*--------------------------------*- C++ -*----------------------------------*\
  =========                 |
  \\      /  F ield         | OpenFOAM: The Open Source CFD Toolbox
   \\    /   O peration     | Website:  https://openfoam.org
    \\  /    A nd           | Version:  8
     \\/     M anipulation  |
\*---------------------------------------------------------------------------*/
FoamFile
{
    version     2.0;
    format      ascii;
    class       volScalarField;
    object      nut;
}
// * * * * * * * * * * * * * * * * * * * * * * * * * * * * * * * * * * * * * //

dimensions      [0 2 -1 0 0 0 0];

internalField   uniform .14;

boundaryField
{
    left
    {
        type            freestream;
        freestreamValue uniform .14;
    }

    right
    {
        type            freestream;
        freestreamValue uniform .14;
    }

    wing
    {
        type            nutUSpaldingWallFunction;
        value           uniform 0;
    }

    down
    {
        type            symmetryPlane;
    }

    up
    {
        type            symmetryPlane;
    }


    front
    {
        type            empty;
    }

    back
    {
        type            empty;
    }

}

// ************************************************************************* //
