/*--------------------------------*- C++ -*----------------------------------*\
  =========                 |
  \\      /  F ield         | OpenFOAM: The Open Source CFD Toolbox
   \\    /   O peration     | Website:  https://openfoam.org
    \\  /    A nd           | Version:  9
     \\/     M anipulation  |
\*---------------------------------------------------------------------------*/
FoamFile
{
    format      ascii;
    class       polyBoundaryMesh;
    location    "constant/polyMesh";
    object      boundary;
}
// * * * * * * * * * * * * * * * * * * * * * * * * * * * * * * * * * * * * * //

10
(
    down
    {
        type            patch;
        nFaces          0;
        startFace       12503;
    }
    right
    {
        type            patch;
        nFaces          100;
        startFace       12503;
    }
    up
    {
        type            patch;
        nFaces          101;
        startFace       12603;
    }
    meanFlow
    {
        type            patch;
        nFaces          0;
        startFace       12704;
    }
    surface
    {
        type            wall;
        inGroups        List<word> 1(wall);
        nFaces          37;
        startFace       12704;
    }
    surfaceInner
    {
        type            wall;
        inGroups        List<word> 1(wall);
        nFaces          0;
        startFace       12741;
    }
    coandaInlet
    {
        type            patch;
        nFaces          0;
        startFace       12741;
    }
    defaultFaces
    {
        type            empty;
        inGroups        List<word> 1(empty);
        nFaces          12704;
        startFace       12741;
    }
    procBoundary3to1
    {
        type            processor;
        inGroups        List<word> 1(processor);
        nFaces          97;
        startFace       25445;
        matchTolerance  0.0001;
        myProcNo        3;
        neighbProcNo    1;
    }
    procBoundary3to2
    {
        type            processor;
        inGroups        List<word> 1(processor);
        nFaces          67;
        startFace       25542;
        matchTolerance  0.0001;
        myProcNo        3;
        neighbProcNo    2;
    }
)

// ************************************************************************* //
